@<TRIPOS>MOLECULE
GDM
   80    81     1     0     0
SMALL
bcc


@<TRIPOS>ATOM
      1 H02         39.2060   -49.3530    69.7320 hn         0 GDM       0.333500
      2 H04         36.5440   -42.4090    61.6290 hn         0 GDM       0.324000
      3 H03         35.9770   -43.5960    62.7820 hn         0 GDM       0.324000
      4 H05         39.0960   -48.1710    66.1040 ha         0 GDM       0.135000
      5 H08         38.3970   -47.0400    64.5720 h1         0 GDM       0.086700
      6 H07         40.4110   -47.9350    62.5060 ha         0 GDM       0.129000
      7 H11         42.5040   -44.0000    65.3550 hc         0 GDM       0.061700
      8 H06         41.1570   -49.4140    64.1350 ha         0 GDM       0.132000
      9 H12         43.9890   -44.3390    62.7550 h1         0 GDM       0.065700
     10 H09         39.5170   -45.5090    62.1360 h1         0 GDM       0.092700
     11 H15         45.0400   -45.3960    66.1650 hc         0 GDM       0.056200
     12 H14         43.2280   -45.6460    66.1600 hc         0 GDM       0.056200
     13 H25         37.7550   -48.2280    60.7170 h1         0 GDM       0.043367
     14 H13         43.2880   -46.3400    63.8830 h1         0 GDM       0.046700
     15 H20         41.6260   -51.2740    66.6370 hc         0 GDM       0.062367
     16 H19         38.9720   -46.5540    69.3580 ha         0 GDM       0.166000
     17 H10         41.5080   -44.5480    62.5130 ha         0 GDM       0.125000
     18 H18         44.3360   -48.6220    68.1080 hc         0 GDM       0.066700
     19 H23         38.8660   -48.9020    61.9330 h1         0 GDM       0.043367
     20 H17         44.8690   -46.9140    68.3230 hc         0 GDM       0.066700
     21 H22         40.8270   -51.2950    65.0460 hc         0 GDM       0.062367
     22 H33         45.9740   -47.3450    62.0550 h1         0 GDM       0.037700
     23 H28         40.0900   -43.7980    65.9670 hc         0 GDM       0.047367
     24 H27         40.5900   -45.4970    66.1530 hc         0 GDM       0.047367
     25 H26         38.9000   -45.1050    65.7560 hc         0 GDM       0.047367
     26 H29         41.6780   -41.8310    64.5680 hc         0 GDM       0.043367
     27 H32         45.8490   -45.5850    61.8270 h1         0 GDM       0.037700
     28 H31         42.2710   -42.1340    62.9180 hc         0 GDM       0.043367
     29 H30         43.4250   -41.7970    64.2310 hc         0 GDM       0.043367
     30 H16         45.3960   -47.7260    66.0960 hc         0 GDM       0.075700
     31 H37         43.1790   -49.1960    66.1320 hc         0 GDM       0.035700
     32 H36         43.9630   -48.6930    64.6140 hc         0 GDM       0.035700
     33 H35         42.5520   -47.7980    65.2260 hc         0 GDM       0.035700
     34 H38         45.1900   -44.1490    68.2850 h1         0 GDM       0.056700
     35 H34         44.3740   -46.5710    61.9600 h1         0 GDM       0.037700
     36 H40         45.0240   -45.8340    68.8330 h1         0 GDM       0.056700
     37 H39         44.6990   -44.4950    69.9600 h1         0 GDM       0.056700
     38 H21         40.1130   -52.1840    66.4130 hc         0 GDM       0.062367
     39 H24         37.1390   -49.3310    61.9720 h1         0 GDM       0.043367
     40 H01         45.2050   -43.8230    65.2780 ho         0 GDM       0.410000
     41 O           38.4350   -50.9890    68.1470 o          0 GDM      -0.560100
     42 O1          37.5890   -47.3870    62.6380 os         0 GDM      -0.402600
     43 O2          37.9680   -44.7170    63.2480 os         0 GDM      -0.429900
     44 O3          38.9370   -43.2560    61.7630 o          0 GDM      -0.601000
     45 O4          44.9430   -43.4780    64.4210 oh         0 GDM      -0.592800
     46 O5          45.4050   -46.2650    63.7580 os         0 GDM      -0.422600
     47 O6          43.2450   -44.8190    68.5200 os         0 GDM      -0.321900
     48 O7          40.6420   -44.5160    69.2530 o          0 GDM      -0.512100
     49 O8          42.1120   -49.4480    68.1200 o          0 GDM      -0.492100
     50 N           39.5890   -49.1610    68.8170 n          0 GDM      -0.492100
     51 N1          36.7290   -43.1860    62.2470 n          0 GDM      -0.632000
     52 C           39.2170   -50.1180    67.8480 c          0 GDM       0.683300
     53 C1          39.8780   -50.0730    66.5040 ce         0 GDM      -0.132400
     54 C2          39.7130   -48.9800    65.7140 cf         0 GDM      -0.103000
     55 C3          40.2930   -48.7990    64.3870 cf         0 GDM      -0.114000
     56 C4          39.8560   -47.9390    63.4440 c2         0 GDM      -0.174200
     57 C5          38.7090   -46.9950    63.5290 c3         0 GDM       0.164300
     58 C6          39.1110   -45.5010    63.1470 c3         0 GDM       0.166300
     59 C7          40.2740   -44.8800    64.1120 c2         0 GDM      -0.134400
     60 C8          41.4060   -44.4320    63.5920 c2         0 GDM      -0.144200
     61 C9          42.5670   -43.7870    64.2880 c3         0 GDM      -0.061500
     62 C10         43.9320   -44.3370    63.8430 c3         0 GDM       0.117100
     63 C11         44.1430   -45.7890    64.2740 c3         0 GDM       0.110100
     64 C12         44.1980   -45.9760    65.7870 c3         0 GDM      -0.074400
     65 C13         44.3630   -47.4320    66.2830 c3         0 GDM      -0.054700
     66 C14         44.1620   -47.5820    67.8310 c3         0 GDM      -0.031200
     67 C15         42.7820   -47.1900    68.2720 cc         0 GDM      -0.187400
     68 C16         42.3590   -45.9580    68.5760 cd         0 GDM       0.052900
     69 C17         40.9730   -45.6670    68.9870 c          0 GDM       0.559500
     70 C18         40.0010   -46.7620    69.0660 cc         0 GDM      -0.296200
     71 C19         40.3710   -48.0090    68.7820 cd         0 GDM       0.051400
     72 C20         41.7830   -48.2910    68.3730 c          0 GDM       0.564500
     73 C21         40.6640   -51.2890    66.1240 c3         0 GDM      -0.064900
     74 C22         37.8540   -48.5360    61.7580 c3         0 GDM       0.095700
     75 C23         37.9700   -43.6720    62.3560 c          0 GDM       0.742100
     76 C24         39.9400   -44.8150    65.6040 c3         0 GDM      -0.058900
     77 C25         42.4790   -42.2760    63.9780 c3         0 GDM      -0.083100
     78 C26         45.4000   -46.4540    62.3080 c3         0 GDM       0.111700
     79 C27         43.4520   -48.3420    65.5110 c3         0 GDM      -0.096100
     80 C28         44.6220   -44.8250    68.9240 c3         0 GDM       0.115700
@<TRIPOS>BOND
     1     1    50 1   
     2     2    51 1   
     3     3    51 1   
     4     4    54 1   
     5     5    57 1   
     6     6    56 1   
     7     7    61 1   
     8     8    55 1   
     9     9    62 1   
    10    10    58 1   
    11    11    64 1   
    12    12    64 1   
    13    13    74 1   
    14    14    63 1   
    15    15    73 1   
    16    16    70 1   
    17    17    60 1   
    18    18    66 1   
    19    19    74 1   
    20    20    66 1   
    21    21    73 1   
    22    22    78 1   
    23    23    76 1   
    24    24    76 1   
    25    25    76 1   
    26    26    77 1   
    27    27    78 1   
    28    28    77 1   
    29    29    77 1   
    30    30    65 1   
    31    31    79 1   
    32    32    79 1   
    33    33    79 1   
    34    34    80 1   
    35    35    78 1   
    36    36    80 1   
    37    37    80 1   
    38    38    73 1   
    39    39    74 1   
    40    40    45 1   
    41    41    52 2   
    42    42    57 1   
    43    42    74 1   
    44    43    58 1   
    45    43    75 1   
    46    44    75 2   
    47    45    62 1   
    48    46    63 1   
    49    46    78 1   
    50    47    68 1   
    51    47    80 1   
    52    48    69 2   
    53    49    72 2   
    54    50    52 1   
    55    50    71 1   
    56    51    75 1   
    57    52    53 1   
    58    53    54 2   
    59    53    73 1   
    60    54    55 1   
    61    55    56 2   
    62    56    57 1   
    63    57    58 1   
    64    58    59 1   
    65    59    60 2   
    66    59    76 1   
    67    60    61 1   
    68    61    62 1   
    69    61    77 1   
    70    62    63 1   
    71    63    64 1   
    72    64    65 1   
    73    65    66 1   
    74    65    79 1   
    75    66    67 1   
    76    67    68 2   
    77    67    72 1   
    78    68    69 1   
    79    69    70 1   
    80    70    71 2   
    81    71    72 1   
@<TRIPOS>SUBSTRUCTURE
     1 GDM         1 TEMP              0 ****  ****    0 ROOT
