@<TRIPOS>MOLECULE
1UN
   85    88     1     0     0
SMALL
bcc


@<TRIPOS>ATOM
      1 C1          17.6520    27.4490    12.7990 c3       201 1UN      -0.051700
      2 C2          18.3740    26.8110    11.6210 c3       201 1UN      -0.057700
      3 C3          17.5420    26.7500    10.3450 c3       201 1UN      -0.070400
      4 C4          16.8880    28.0990    10.0830 c3       201 1UN      -0.077400
      5 C5          16.1660    28.5860    11.3310 c3       201 1UN      -0.076400
      6 C6          17.1240    28.8360    12.4940 c3       201 1UN      -0.079400
      7 N7          19.7000    28.3220    13.7270 n3       201 1UN      -0.715600
      8 C8          20.4650    27.6440    12.6890 c3       201 1UN       0.126500
      9 C9          19.6630    27.5800    11.3870 c3       201 1UN      -0.072400
     10 C10         18.5190    27.5190    14.0440 c3       201 1UN       0.160800
     11 C11         21.7100    28.3770    12.3210 c        201 1UN       0.659100
     12 N12         22.7420    27.5550    12.1370 n        201 1UN      -0.571900
     13 C13         24.0630    27.9180    11.6750 c3       201 1UN       0.124400
     14 C14         24.6920    28.7540    12.7890 c3       201 1UN      -0.108433
     15 C15         23.9610    28.6780    10.3500 c3       201 1UN      -0.108433
     16 C16         24.8630    26.6300    11.4480 c3       201 1UN      -0.108433
     17 O17         21.6810    29.5930    12.1850 o        201 1UN      -0.604100
     18 C18         20.4270    28.3490    14.9830 c3       201 1UN       0.137800
     19 C19         19.9360    29.5350    15.7930 c3       201 1UN       0.117100
     20 C20         20.5990    30.8460    15.3910 c3       201 1UN       0.126700
     21 O21         20.2180    29.1920    17.1330 oh       201 1UN      -0.606800
     22 N22         19.8830    31.9160    16.0470 n        201 1UN      -0.557900
     23 C23         22.0740    31.0060    15.7490 c3       201 1UN      -0.068300
     24 C24         18.8960    32.5950    15.4700 c        201 1UN       0.677700
     25 O25         18.5620    32.4850    14.3050 o        201 1UN      -0.621100
     26 C29         18.1700    33.5500    16.3600 ca       201 1UN      -0.108600
     27 C30         18.9000    34.4270    17.1640 ca       201 1UN      -0.130000
     28 C31         18.2810    35.3300    18.0260 ca       201 1UN      -0.102000
     29 C32         16.8960    35.3930    18.1000 ca       201 1UN      -0.195000
     30 C33         16.1010    34.5470    17.3310 ca       201 1UN       0.111100
     31 C34         16.6960    33.5600    16.4060 ca       201 1UN      -0.051300
     32 O38         14.7860    34.5830    17.4030 oh       201 1UN      -0.497100
     33 C39         15.7930    32.6670    15.5910 c3       201 1UN      -0.059800
     34 S74         22.7670    32.3280    14.8010 ss       201 1UN      -0.160000
     35 C77         22.6520    33.7870    15.6490 ca       201 1UN      -0.006100
     36 C78         22.4720    34.9430    14.9010 ca       201 1UN      -0.144000
     37 C79         22.3600    36.1670    15.5410 ca       201 1UN      -0.113000
     38 C80         22.4490    36.2380    16.9250 ca       201 1UN      -0.145000
     39 C81         22.6340    35.0800    17.6700 ca       201 1UN      -0.113000
     40 C82         22.7350    33.8470    17.0370 ca       201 1UN      -0.144000
     41 H01         16.8050    26.7900    12.9880 hc       201 1UN       0.051700
     42 H02         18.5760    25.7710    11.8760 hc       201 1UN       0.037700
     43 H03         16.7660    25.9940    10.4610 hc       201 1UN       0.038200
     44 H04         18.1870    26.4920     9.5050 hc       201 1UN       0.038200
     45 H05         16.1650    27.9920     9.2740 hc       201 1UN       0.039200
     46 H06         17.6540    28.8230     9.8040 hc       201 1UN       0.039200
     47 H07         15.4670    27.8080    11.6370 hc       201 1UN       0.039200
     48 H08         15.6480    29.5160    11.0970 hc       201 1UN       0.039200
     49 H09         17.9090    29.5540    12.2590 hc       201 1UN       0.059200
     50 H10         16.5990    29.2550    13.3530 hc       201 1UN       0.059200
     51 H11         20.6950    26.6620    13.1020 h1       201 1UN       0.025700
     52 H12         19.4260    28.5920    11.0570 hc       201 1UN       0.057700
     53 H13         20.2530    27.0770    10.6210 hc       201 1UN       0.057700
     54 H14         18.8150    26.5170    14.3560 h1       201 1UN       0.047200
     55 H15         17.9620    27.9840    14.8580 h1       201 1UN       0.047200
     56 H16         22.5860    26.5780    12.3410 hn       201 1UN       0.306500
     57 H17         25.5970    29.2340    12.4160 hc       201 1UN       0.045700
     58 H18         23.9850    29.5170    13.1150 hc       201 1UN       0.045700
     59 H19         24.9440    28.1080    13.6300 hc       201 1UN       0.045700
     60 H20         23.4830    29.6430    10.5210 hc       201 1UN       0.045700
     61 H21         24.9600    28.8350     9.9430 hc       201 1UN       0.045700
     62 H22         23.3670    28.0990     9.6430 hc       201 1UN       0.045700
     63 H23         25.8200    26.7010    11.9650 hc       201 1UN       0.045700
     64 H24         24.3030    25.7800    11.8380 hc       201 1UN       0.045700
     65 H25         25.0370    26.4930    10.3810 hc       201 1UN       0.045700
     66 H26         21.4970    28.4400    14.7950 h1       201 1UN       0.042200
     67 H27         20.2470    27.4260    15.5340 h1       201 1UN       0.042200
     68 H28         18.8740    29.7160    15.6250 h1       201 1UN       0.052700
     69 H29         20.5580    30.8640    14.3020 h1       201 1UN       0.104700
     70 H30         20.4930    28.2730    17.1780 ho       201 1UN       0.402000
     71 H31         20.1450    32.1600    16.9910 hn       201 1UN       0.326500
     72 H32         22.6050    30.0810    15.5270 h1       201 1UN       0.112700
     73 H33         22.1690    31.2300    16.8110 h1       201 1UN       0.112700
     74 H34         19.9890    34.4050    17.1160 ha       201 1UN       0.149000
     75 H35         18.8870    35.9910    18.6460 ha       201 1UN       0.138000
     76 H36         16.4250    36.1140    18.7680 ha       201 1UN       0.134000
     77 H37         14.5080    35.4270    17.7670 ho       201 1UN       0.419000
     78 H38         14.8920    33.2150    15.3170 hc       201 1UN       0.057367
     79 H39         16.3140    32.3500    14.6870 hc       201 1UN       0.057367
     80 H40         15.5200    31.7910    16.1790 hc       201 1UN       0.057367
     81 H41         22.4190    34.8880    13.8140 ha       201 1UN       0.144000
     82 H42         22.2020    37.0740    14.9580 ha       201 1UN       0.131000
     83 H43         22.3740    37.2030    17.4270 ha       201 1UN       0.130000
     84 H44         22.7000    35.1390    18.7560 ha       201 1UN       0.131000
     85 H45         22.8780    32.9380    17.6210 ha       201 1UN       0.144000
@<TRIPOS>BOND
     1     1     2 1   
     2     1     6 1   
     3     1    10 1   
     4     1    41 1   
     5     2     3 1   
     6     2     9 1   
     7     2    42 1   
     8     3     4 1   
     9     3    43 1   
    10     3    44 1   
    11     4     5 1   
    12     4    45 1   
    13     4    46 1   
    14     5     6 1   
    15     5    47 1   
    16     5    48 1   
    17     6    49 1   
    18     6    50 1   
    19     7     8 1   
    20     7    10 1   
    21     7    18 1   
    22     8     9 1   
    23     8    11 1   
    24     8    51 1   
    25     9    52 1   
    26     9    53 1   
    27    10    54 1   
    28    10    55 1   
    29    11    12 1   
    30    11    17 2   
    31    12    13 1   
    32    12    56 1   
    33    13    14 1   
    34    13    15 1   
    35    13    16 1   
    36    14    57 1   
    37    14    58 1   
    38    14    59 1   
    39    15    60 1   
    40    15    61 1   
    41    15    62 1   
    42    16    63 1   
    43    16    64 1   
    44    16    65 1   
    45    18    19 1   
    46    18    66 1   
    47    18    67 1   
    48    19    20 1   
    49    19    21 1   
    50    19    68 1   
    51    20    22 1   
    52    20    23 1   
    53    20    69 1   
    54    21    70 1   
    55    22    24 1   
    56    22    71 1   
    57    23    34 1   
    58    23    72 1   
    59    23    73 1   
    60    24    25 2   
    61    24    26 1   
    62    26    27 ar  
    63    26    31 ar  
    64    27    28 ar  
    65    27    74 1   
    66    28    29 ar  
    67    28    75 1   
    68    29    30 ar  
    69    29    76 1   
    70    30    31 ar  
    71    30    32 1   
    72    31    33 1   
    73    32    77 1   
    74    33    78 1   
    75    33    79 1   
    76    33    80 1   
    77    34    35 1   
    78    35    36 ar  
    79    35    40 ar  
    80    36    37 ar  
    81    36    81 1   
    82    37    38 ar  
    83    37    82 1   
    84    38    39 ar  
    85    38    83 1   
    86    39    40 ar  
    87    39    84 1   
    88    40    85 1   
@<TRIPOS>SUBSTRUCTURE
     1 1UN         1 TEMP              0 ****  ****    0 ROOT
