@<TRIPOS>MOLECULE
73Z
   59    62     1     0     0
SMALL
bcc


@<TRIPOS>ATOM
      1 H02         26.2190    27.3250    14.1920 hc         0 73Z       0.040700
      2 H01         28.4730    23.1890     9.2330 h4         0 73Z       0.173000
      3 H05         28.5640    26.4120    15.8930 hc         0 73Z       0.040700
      4 H04         26.8780    26.7010    12.6610 hc         0 73Z       0.040700
      5 H07         28.0140    24.7680    16.2970 hc         0 73Z       0.040700
      6 H03         27.9570    27.4810    13.8420 hc         0 73Z       0.040700
      7 H10         25.2800    22.0910     9.9590 hc         0 73Z       0.053033
      8 H09         25.9350    23.1080     8.6530 hc         0 73Z       0.053033
      9 H16         33.1790    23.6560    12.9210 ha         0 73Z       0.140000
     10 H08         24.8020    23.8010     9.8370 hc         0 73Z       0.053033
     11 H14         29.2510    25.4850    13.4610 hc         0 73Z       0.060700
     12 H13         25.2430    25.1830    14.7390 hc         0 73Z       0.071700
     13 H06         26.8770    26.1350    16.3890 hc         0 73Z       0.040700
     14 H15         28.8180    23.9430    14.3010 hc         0 73Z       0.060700
     15 H19         30.9900    25.8190     7.7270 h1         0 73Z       0.059700
     16 H18         33.6570    26.1300     8.9680 hn         0 73Z       0.440800
     17 H17         30.1380    25.1820     9.3070 ha         0 73Z       0.151000
     18 H20         32.3570    28.4680     8.2300 hc         0 73Z       0.060450
     19 H23         29.6780    27.9470     6.9170 hc         0 73Z       0.073450
     20 H22         30.5410    29.5170     7.1310 hc         0 73Z       0.073450
     21 H21         30.8480    27.8850     9.0140 hc         0 73Z       0.060450
     22 H11         30.7780    23.0880    13.0090 ha         0 73Z       0.149000
     23 H27         32.9260    25.3050     6.3430 hc         0 73Z       0.060450
     24 H26         33.5910    26.9430     6.6670 hc         0 73Z       0.060450
     25 H25         31.0990    26.2290     5.1060 hc         0 73Z       0.073450
     26 H28         36.3390    24.3510    11.5850 hn         0 73Z       0.315500
     27 H24         32.6130    27.0220     4.5240 hc         0 73Z       0.073450
     28 H12         26.2980    23.7020    14.8480 hc         0 73Z       0.071700
     29 H29         34.9930    23.3090    11.9890 hn         0 73Z       0.315500
     30 C           25.6720    24.1990    12.9100 c          0 73Z       0.613700
     31 C1          26.7470    23.9310    11.9520 cc         0 73Z      -0.240600
     32 C2          28.0540    24.1750    12.3450 cd         0 73Z      -0.038600
     33 C3          28.1020    23.4780    10.2160 cd         0 73Z      -0.176300
     34 C4          26.7870    23.4840    10.5860 cc         0 73Z      -0.064300
     35 C5          27.0790    26.8470    13.7220 c3         0 73Z      -0.092100
     36 C6          27.7250    25.7170    15.8460 c3         0 73Z      -0.092100
     37 C7          25.6190    23.0930     9.6960 c3         0 73Z      -0.039800
     38 C8          30.3140    24.1190    11.1760 ca         0 73Z       0.071800
     39 C9          31.1680    23.6770    12.1790 ca         0 73Z      -0.204000
     40 C10         26.0700    24.6200    14.3060 c3         0 73Z      -0.174400
     41 C11         27.3340    25.4900    14.3860 c3         0 73Z      -0.039000
     42 C12         28.4680    24.7530    13.6620 c3         0 73Z      -0.017100
     43 N           28.8950    23.8930    11.2720 na         0 73Z       0.008800
     44 O           24.4910    24.1970    12.5710 o          0 73Z      -0.550100
     45 C13         32.5160    23.9870    12.1210 ca         0 73Z      -0.049000
     46 C14         33.0390    24.7190    11.0500 ca         0 73Z      -0.223600
     47 C15         32.1740    25.1610    10.0220 ca         0 73Z       0.240600
     48 C16         30.8130    24.8510    10.0960 ca         0 73Z      -0.227000
     49 C17         34.5030    25.0400    11.0330 c          0 73Z       0.683700
     50 N1          32.6690    25.9180     8.9610 nh         0 73Z      -0.736600
     51 C18         31.8840    26.4330     7.8380 c3         0 73Z       0.203500
     52 C19         31.4570    27.8640     8.1100 c3         0 73Z      -0.092900
     53 C20         30.6460    28.4470     6.9520 c3         0 73Z      -0.180900
     54 C21         31.3250    28.2750     5.6220 c          0 73Z       0.567100
     55 C22         31.9100    26.9150     5.3500 c3         0 73Z      -0.180900
     56 C23         32.6860    26.3490     6.5420 c3         0 73Z      -0.092900
     57 O1          31.3640    29.1670     4.8040 o          0 73Z      -0.523100
     58 N2          35.3470    24.1620    11.5800 n          0 73Z      -0.667000
     59 O2          34.8880    26.0960    10.5240 o          0 73Z      -0.632100
@<TRIPOS>BOND
     1     1    35 1   
     2     2    33 1   
     3     3    36 1   
     4     4    35 1   
     5     5    36 1   
     6     6    35 1   
     7     7    37 1   
     8     8    37 1   
     9     9    45 1   
    10    10    37 1   
    11    11    42 1   
    12    12    40 1   
    13    13    36 1   
    14    14    42 1   
    15    15    51 1   
    16    16    50 1   
    17    17    48 1   
    18    18    52 1   
    19    19    53 1   
    20    20    53 1   
    21    21    52 1   
    22    22    39 1   
    23    23    56 1   
    24    24    56 1   
    25    25    55 1   
    26    26    58 1   
    27    27    55 1   
    28    28    40 1   
    29    29    58 1   
    30    30    31 1   
    31    30    40 1   
    32    30    44 2   
    33    31    32 2   
    34    31    34 1   
    35    32    42 1   
    36    32    43 1   
    37    33    34 2   
    38    33    43 1   
    39    34    37 1   
    40    35    41 1   
    41    36    41 1   
    42    38    39 ar  
    43    38    43 1   
    44    38    48 ar  
    45    39    45 ar  
    46    40    41 1   
    47    41    42 1   
    48    45    46 ar  
    49    46    47 ar  
    50    46    49 1   
    51    47    48 ar  
    52    47    50 1   
    53    49    58 1   
    54    49    59 2   
    55    50    51 1   
    56    51    52 1   
    57    51    56 1   
    58    52    53 1   
    59    53    54 1   
    60    54    55 1   
    61    54    57 2   
    62    55    56 1   
@<TRIPOS>SUBSTRUCTURE
     1 73Z         1 TEMP              0 ****  ****    0 ROOT
