@<TRIPOS>MOLECULE
LF7
   49    52     1     0     0
SMALL
bcc


@<TRIPOS>ATOM
      1 H07         34.3990    50.7980    36.5540 h1         0 LF7       0.078700
      2 H09         36.5580    48.1340    37.9320 hn         0 LF7       0.403400
      3 H11         38.8260    49.9490    35.3230 h1         0 LF7       0.050700
      4 H08         34.4540    50.0290    38.6440 h4         0 LF7       0.009800
      5 H13         39.1650    50.4600    37.3030 hc         0 LF7       0.048700
      6 H12         39.6550    52.1100    34.1230 hn         0 LF7       0.374800
      7 H16         41.4880    49.3190    37.7210 hc         0 LF7       0.043200
      8 H15         40.4490    50.8130    39.3610 hc         0 LF7       0.054700
      9 H10         37.9760    50.7060    33.9200 h1         0 LF7       0.050700
     10 H17         42.7290    50.2220    38.6330 hc         0 LF7       0.043200
     11 H20         41.6580    51.1690    34.6010 hc         0 LF7       0.048700
     12 H19         40.8470    49.8880    35.5330 hc         0 LF7       0.048700
     13 H18         43.3050    50.2280    36.1920 hc         0 LF7       0.054700
     14 H21         43.4020    52.6530    35.8640 hc         0 LF7       0.048950
     15 H25         42.6490    54.5670    38.5880 ho         0 LF7       0.398000
     16 H24         40.6690    53.3060    39.0700 hc         0 LF7       0.048950
     17 H23         42.2500    52.5590    39.4030 hc         0 LF7       0.048950
     18 H26         40.0930    53.9730    36.6590 hc         0 LF7       0.063200
     19 H22         43.8750    52.2000    37.5330 hc         0 LF7       0.048950
     20 H14         38.9660    52.1480    37.8130 hc         0 LF7       0.048700
     21 H27         41.2870    53.6630    35.3750 hc         0 LF7       0.063200
     22 H01         37.3690    48.1140    35.4820 h1         0 LF7       0.040700
     23 H02         36.6880    48.8250    34.0430 h1         0 LF7       0.040700
     24 H03         35.2930    47.0290    36.0270 hc         0 LF7       0.054700
     25 H04         34.9370    47.2970    34.3470 hc         0 LF7       0.054700
     26 H05         33.2820    48.4470    36.1430 hc         0 LF7       0.056200
     27 H06         33.7550    49.3450    34.7380 hc         0 LF7       0.056200
     28 O           36.7730    52.0420    36.3790 o          0 LF7      -0.582100
     29 C           37.0330    50.9960    35.7850 c          0 LF7       0.650100
     30 N           36.2240    49.8830    35.8120 n          0 LF7      -0.482800
     31 C1          36.4910    48.6330    35.0980 c3         0 LF7       0.092000
     32 C2          35.2000    47.8100    35.2720 c3         0 LF7      -0.090400
     33 C3          34.1500    48.8630    35.6320 c3         0 LF7      -0.083400
     34 C4          34.9350    49.8510    36.4880 c3         0 LF7      -0.002600
     35 C5          35.1110    49.4970    37.9560 c2         0 LF7       0.425200
     36 N1          35.9170    48.6660    38.5030 n2         0 LF7      -0.753100
     37 C6          38.2860    50.8230    34.9580 c3         0 LF7       0.120800
     38 N2          39.2000    52.0090    35.0190 n3         0 LF7      -0.814200
     39 C7          40.2550    51.8940    36.0790 c3         0 LF7       0.200200
     40 C8          39.6770    51.4130    37.4360 c3         0 LF7      -0.089400
     41 C9          40.8330    51.2490    38.4390 c3         0 LF7      -0.055700
     42 C10         41.9260    50.3010    37.9000 c3         0 LF7      -0.074400
     43 C11         42.4940    50.8430    36.5820 c3         0 LF7      -0.055700
     44 C12         41.3010    50.8770    35.5890 c3         0 LF7      -0.089400
     45 C13         43.0540    52.2570    36.8180 c3         0 LF7      -0.099900
     46 C14         41.4370    52.6380    38.6810 c3         0 LF7      -0.099900
     47 C15         41.9780    53.1950    37.3670 c3         0 LF7       0.151800
     48 O1          42.5030    54.4770    37.6430 oh         0 LF7      -0.592800
     49 C16         40.8680    53.2900    36.3100 c3         0 LF7      -0.056400
@<TRIPOS>BOND
     1     1    34 1   
     2     2    36 1   
     3     3    37 1   
     4     4    35 1   
     5     5    40 1   
     6     6    38 1   
     7     7    42 1   
     8     8    41 1   
     9     9    37 1   
    10    10    42 1   
    11    11    44 1   
    12    12    44 1   
    13    13    43 1   
    14    14    45 1   
    15    15    48 1   
    16    16    46 1   
    17    17    46 1   
    18    18    49 1   
    19    19    45 1   
    20    20    40 1   
    21    21    49 1   
    22    22    31 1   
    23    23    31 1   
    24    24    32 1   
    25    25    32 1   
    26    26    33 1   
    27    27    33 1   
    28    28    29 2   
    29    29    30 1   
    30    29    37 1   
    31    30    31 1   
    32    30    34 1   
    33    31    32 1   
    34    32    33 1   
    35    33    34 1   
    36    34    35 1   
    37    35    36 2   
    38    37    38 1   
    39    38    39 1   
    40    39    40 1   
    41    39    44 1   
    42    39    49 1   
    43    40    41 1   
    44    41    42 1   
    45    41    46 1   
    46    42    43 1   
    47    43    44 1   
    48    43    45 1   
    49    45    47 1   
    50    46    47 1   
    51    47    48 1   
    52    47    49 1   
@<TRIPOS>SUBSTRUCTURE
     1 LF7         1 TEMP              0 ****  ****    0 ROOT
