@<TRIPOS>MOLECULE
LF7
   49    52     1     0     0
SMALL
bcc


@<TRIPOS>ATOM
      1 C1          40.8330    51.2490    38.4390 c3       801 LF7      -0.056700
      2 C2          41.9260    50.3010    37.9000 c3       801 LF7      -0.074400
      3 N2          35.9170    48.6660    38.5030 n2       801 LF7      -0.752100
      4 C3          41.9780    53.1950    37.3670 c3       801 LF7       0.152800
      5 O4          42.5030    54.4770    37.6430 oh       801 LF7      -0.593800
      6 C5          43.0540    52.2570    36.8180 c3       801 LF7      -0.099900
      7 C6          40.8680    53.2900    36.3100 c3       801 LF7      -0.061400
      8 C7          40.2550    51.8940    36.0790 c3       801 LF7       0.189200
      9 C8          39.6770    51.4130    37.4360 c3       801 LF7      -0.084900
     10 C9          41.3010    50.8770    35.5890 c3       801 LF7      -0.084900
     11 C10         42.4940    50.8430    36.5820 c3       801 LF7      -0.056700
     12 N12         39.2000    52.0090    35.0190 n3       801 LF7      -0.800200
     13 C13         38.2860    50.8230    34.9580 c3       801 LF7       0.107800
     14 C14         37.0330    50.9960    35.7850 c        801 LF7       0.615100
     15 N15         36.2240    49.8830    35.8120 n        801 LF7      -0.469800
     16 C16         34.9350    49.8510    36.4880 c3       801 LF7      -0.002600
     17 C17         34.1500    48.8630    35.6320 c3       801 LF7      -0.083400
     18 C18         35.2000    47.8100    35.2720 c3       801 LF7      -0.090400
     19 C19         36.4910    48.6330    35.0980 c3       801 LF7       0.091000
     20 C20         35.1110    49.4970    37.9560 c2       801 LF7       0.424200
     21 O20         36.7730    52.0420    36.3790 o        801 LF7      -0.621100
     22 C21         41.4370    52.6380    38.6810 c3       801 LF7      -0.099900
     23 H01         40.4490    50.8130    39.3610 hc       801 LF7       0.054200
     24 H02         41.4880    49.3190    37.7210 hc       801 LF7       0.042700
     25 H03         42.7290    50.2220    38.6330 hc       801 LF7       0.042700
     26 H04         36.5580    48.1340    37.9320 hn       801 LF7       0.402400
     27 H05         42.6490    54.5670    38.5880 ho       801 LF7       0.399000
     28 H06         43.8590    52.1910    37.5500 hc       801 LF7       0.048950
     29 H07         43.4250    52.6550    35.8740 hc       801 LF7       0.048950
     30 H08         41.2890    53.6600    35.3750 hc       801 LF7       0.062700
     31 H09         40.0940    53.9750    36.6560 hc       801 LF7       0.062700
     32 H10         39.1650    50.4600    37.3030 hc       801 LF7       0.049200
     33 H11         38.9660    52.1480    37.8130 hc       801 LF7       0.049200
     34 H12         41.6580    51.1700    34.6020 hc       801 LF7       0.049200
     35 H13         40.8470    49.8880    35.5310 hc       801 LF7       0.049200
     36 H14         43.3050    50.2280    36.1920 hc       801 LF7       0.054200
     37 H15         38.6450    52.8320    35.2060 hn       801 LF7       0.384800
     38 H16         38.8300    49.9720    35.3680 h1       801 LF7       0.073700
     39 H17         37.9970    50.6600    33.9200 h1       801 LF7       0.073700
     40 H18         34.3990    50.7980    36.5540 h1       801 LF7       0.079700
     41 H19         33.6870    49.3240    34.7590 hc       801 LF7       0.057200
     42 H20         33.3280    48.4210    36.1960 hc       801 LF7       0.057200
     43 H21         34.9390    47.2380    34.3820 hc       801 LF7       0.055700
     44 H22         35.3090    47.0780    36.0720 hc       801 LF7       0.055700
     45 H23         37.3690    48.1140    35.4820 h1       801 LF7       0.045200
     46 H24         36.6880    48.8250    34.0430 h1       801 LF7       0.045200
     47 H25         34.4540    50.0290    38.6440 h4       801 LF7       0.010800
     48 H26         42.2500    52.5590    39.4030 hc       801 LF7       0.048950
     49 H27         40.6690    53.3060    39.0700 hc       801 LF7       0.048950
@<TRIPOS>BOND
     1     1     2 1   
     2     1     9 1   
     3     1    22 1   
     4     1    23 1   
     5     2    11 1   
     6     2    24 1   
     7     2    25 1   
     8     3    20 2   
     9     3    26 1   
    10     4     5 1   
    11     4     6 1   
    12     4     7 1   
    13     4    22 1   
    14     5    27 1   
    15     6    11 1   
    16     6    28 1   
    17     6    29 1   
    18     7     8 1   
    19     7    30 1   
    20     7    31 1   
    21     8     9 1   
    22     8    10 1   
    23     8    12 1   
    24     9    32 1   
    25     9    33 1   
    26    10    11 1   
    27    10    34 1   
    28    10    35 1   
    29    11    36 1   
    30    12    13 1   
    31    12    37 1   
    32    13    14 1   
    33    13    38 1   
    34    13    39 1   
    35    14    15 1   
    36    14    21 2   
    37    15    16 1   
    38    15    19 1   
    39    16    17 1   
    40    16    20 1   
    41    16    40 1   
    42    17    18 1   
    43    17    41 1   
    44    17    42 1   
    45    18    19 1   
    46    18    43 1   
    47    18    44 1   
    48    19    45 1   
    49    19    46 1   
    50    20    47 1   
    51    22    48 1   
    52    22    49 1   
@<TRIPOS>SUBSTRUCTURE
     1 LF7         1 TEMP              0 ****  ****    0 ROOT
