@<TRIPOS>MOLECULE
2EQ
   56    59     1     0     0
SMALL
bcc


@<TRIPOS>ATOM
      1 CL1         33.8320    12.3300    22.6330 cl      1224 2EQ      -0.061400
      2 C1          29.9670    11.0340    24.4550 ca      1224 2EQ       0.218100
      3 O1          28.8030    10.6630    24.9840 oh      1224 2EQ      -0.486100
      4 C2          29.9880    11.8280    23.3320 ca      1224 2EQ      -0.260000
      5 N2          30.6360     8.9740    28.1520 nc      1224 2EQ      -0.332300
      6 O2          31.2280    12.9990    21.6910 oh      1224 2EQ      -0.474100
      7 C3          31.1910    12.2230    22.7830 ca      1224 2EQ       0.192100
      8 N3          32.0040     7.0180    29.6070 n       1224 2EQ      -0.558900
      9 O3          32.8350     6.1970    27.7070 o       1224 2EQ      -0.580100
     10 C4          32.3680    11.8170    23.3560 ca      1224 2EQ      -0.054600
     11 N4          35.7050     5.3550    22.6660 n3      1224 2EQ      -0.724600
     12 O4          37.4070     3.7880    22.3460 os      1224 2EQ      -0.416600
     13 C5          31.1350    10.6160    25.0320 ca      1224 2EQ      -0.259500
     14 O5          30.3430     9.9890    27.2470 os      1224 2EQ      -0.136100
     15 C6          32.3420    11.0120    24.4870 ca      1224 2EQ      -0.028000
     16 C7          31.1120     9.8140    26.1610 cc      1224 2EQ       0.336200
     17 C8          31.5530     8.2050    27.6140 cd      1224 2EQ       0.286800
     18 C9          31.8790     8.7000    26.3770 cd      1224 2EQ      -0.218600
     19 C10         32.1590     7.0110    28.3040 c       1224 2EQ       0.598600
     20 C11         32.5270     5.9630    30.4700 c3      1224 2EQ       0.086000
     21 C12         34.0280     6.1100    30.6460 c3      1224 2EQ      -0.118100
     22 C13         32.7890     8.2220    25.4630 ca      1224 2EQ      -0.035000
     23 C14         32.3300     7.5250    24.3630 ca      1224 2EQ      -0.104000
     24 C15         33.2110     7.0600    23.4110 ca      1224 2EQ      -0.121500
     25 C16         34.5530     7.2940    23.5700 ca      1224 2EQ      -0.072300
     26 C17         35.0100     7.9950    24.6650 ca      1224 2EQ      -0.121500
     27 C18         34.1330     8.4620    25.6150 ca      1224 2EQ      -0.104000
     28 C19         35.5330     6.7900    22.5390 c3      1224 2EQ       0.212100
     29 C20         36.0920     4.7760    23.9480 c3      1224 2EQ       0.129300
     30 C21         37.0300     3.6260    23.6890 c3      1224 2EQ       0.126900
     31 C22         36.4110     3.3290    21.5060 c3      1224 2EQ       0.126900
     32 C23         35.4780     4.5100    21.4960 c3      1224 2EQ       0.129300
     33 H01         28.5630    11.2700    25.6880 ho      1224 2EQ       0.445000
     34 H02         29.0510    12.1460    22.8740 ha      1224 2EQ       0.162000
     35 H03         30.4810    13.6020    21.7010 ho      1224 2EQ       0.430000
     36 H04         31.5020     7.7850    30.0310 hn      1224 2EQ       0.319500
     37 H05         33.2770    10.6910    24.9470 ha      1224 2EQ       0.164000
     38 H06         32.3210     4.9980    30.0080 h1      1224 2EQ       0.063200
     39 H07         32.0440     6.0250    31.4450 h1      1224 2EQ       0.063200
     40 H08         34.4900     6.2960    29.6770 hc      1224 2EQ       0.043033
     41 H09         34.2360     6.9460    31.3140 hc      1224 2EQ       0.043033
     42 H10         34.4360     5.1940    31.0730 hc      1224 2EQ       0.043033
     43 H11         31.2620     7.3410    24.2470 ha      1224 2EQ       0.141500
     44 H12         32.8460     6.5130    22.5420 ha      1224 2EQ       0.144500
     45 H13         36.0780     8.1810    24.7790 ha      1224 2EQ       0.144500
     46 H14         34.5000     9.0160    26.4790 ha      1224 2EQ       0.141500
     47 H15         35.1470     7.0140    21.5450 h1      1224 2EQ       0.042700
     48 H16         36.4940     7.2820    22.6850 h1      1224 2EQ       0.042700
     49 H17         35.2080     4.4240    24.4810 h1      1224 2EQ       0.043200
     50 H18         36.5920     5.5290    24.5570 h1      1224 2EQ       0.043200
     51 H19         36.5670     2.6580    23.8800 h1      1224 2EQ       0.054200
     52 H20         37.8990     3.6790    24.3450 h1      1224 2EQ       0.054200
     53 H21         35.9500     2.3940    21.8250 h1      1224 2EQ       0.054200
     54 H22         36.7950     3.1130    20.5090 h1      1224 2EQ       0.054200
     55 H23         34.4510     4.1460    21.5200 h1      1224 2EQ       0.043200
     56 H24         35.6490     5.0950    20.5920 h1      1224 2EQ       0.043200
@<TRIPOS>BOND
     1     1    10 1   
     2     2     3 1   
     3     2     4 ar  
     4     2    13 ar  
     5     3    33 1   
     6     4     7 ar  
     7     4    34 1   
     8     5    14 1   
     9     5    17 2   
    10     6     7 1   
    11     6    35 1   
    12     7    10 ar  
    13     8    19 1   
    14     8    20 1   
    15     8    36 1   
    16     9    19 2   
    17    10    15 ar  
    18    11    28 1   
    19    11    29 1   
    20    11    32 1   
    21    12    30 1   
    22    12    31 1   
    23    13    15 ar  
    24    13    16 1   
    25    14    16 1   
    26    15    37 1   
    27    16    18 2   
    28    17    18 1   
    29    17    19 1   
    30    18    22 1   
    31    20    21 1   
    32    20    38 1   
    33    20    39 1   
    34    21    40 1   
    35    21    41 1   
    36    21    42 1   
    37    22    23 ar  
    38    22    27 ar  
    39    23    24 ar  
    40    23    43 1   
    41    24    25 ar  
    42    24    44 1   
    43    25    26 ar  
    44    25    28 1   
    45    26    27 ar  
    46    26    45 1   
    47    27    46 1   
    48    28    47 1   
    49    28    48 1   
    50    29    30 1   
    51    29    49 1   
    52    29    50 1   
    53    30    51 1   
    54    30    52 1   
    55    31    32 1   
    56    31    53 1   
    57    31    54 1   
    58    32    55 1   
    59    32    56 1   
@<TRIPOS>SUBSTRUCTURE
     1 2EQ         1 TEMP              0 ****  ****    0 ROOT
