@<TRIPOS>MOLECULE
JUS
   43    44     1     0     0
SMALL
bcc


@<TRIPOS>ATOM
      1 H01          2.8870   -15.1200    11.6850 ha         0 JUS       0.140000
      2 H03          3.3570   -19.4670    14.1900 ha         0 JUS       0.153000
      3 H05          8.3720   -17.8670    12.5790 ha         0 JUS       0.137000
      4 H02          2.3630   -17.4630    15.3370 ha         0 JUS       0.142000
      5 H07          8.0770   -21.5610    10.2980 ha         0 JUS       0.146000
      6 H06          9.4820   -19.7660    11.3460 ha         0 JUS       0.140000
      7 H10          3.7530   -13.8730    14.4940 hc         0 JUS       0.045700
      8 H09          1.6670   -14.2170    13.5280 hc         0 JUS       0.052700
      9 H04          5.8870   -17.7690    12.7800 ha         0 JUS       0.151000
     10 H11          3.4000   -15.0860    15.8470 hc         0 JUS       0.045700
     11 H14          3.8740   -13.1360    17.7310 hc         0 JUS       0.041200
     12 H13          2.1730   -12.3720    15.4170 hc         0 JUS       0.040200
     13 H12          1.9070   -13.5360    16.7890 hc         0 JUS       0.040200
     14 H15          3.4520   -11.4750    17.0840 hc         0 JUS       0.041200
     15 H19          5.4380   -10.3340    16.1860 hc         0 JUS       0.033367
     16 H18          6.9000   -11.3070    15.9020 hc         0 JUS       0.033367
     17 H17          5.6610   -13.3430    16.4860 hc         0 JUS       0.038700
     18 H20          6.2030   -11.2070    17.5360 hc         0 JUS       0.033367
     19 H16          4.8960   -12.4090    15.1070 hc         0 JUS       0.038700
     20 H08          1.1440   -15.2670    14.8840 hc         0 JUS       0.052700
     21 H21          3.9250   -16.1780     9.9690 ho         0 JUS       0.422000
     22 C            2.9850   -16.0630    12.2230 ca         0 JUS      -0.210000
     23 C1           2.5540   -16.1660    13.5600 ca         0 JUS      -0.029300
     24 C2           2.6890   -17.4000    14.2990 ca         0 JUS      -0.159000
     25 C3           3.2510   -18.5240    13.6540 ca         0 JUS      -0.091000
     26 C4           3.6640   -18.4220    12.3460 ca         0 JUS       0.039100
     27 C5           3.5270   -17.1550    11.6050 ca         0 JUS       0.132100
     28 C6           5.5940   -19.5420    11.6320 ca         0 JUS       0.169100
     29 C7           6.3590   -18.5810    12.2270 ca         0 JUS      -0.195000
     30 C8           7.7610   -18.6450    12.1220 ca         0 JUS      -0.076000
     31 C9           8.3950   -19.7240    11.4190 ca         0 JUS      -0.170000
     32 C10          7.6060   -20.7300    10.8230 ca         0 JUS      -0.065000
     33 C11          6.2460   -20.6500    10.9110 ca         0 JUS      -0.045000
     34 C12          1.9870   -14.9470    14.2720 c3         0 JUS      -0.043100
     35 C13          3.0280   -14.3050    15.1840 c3         0 JUS      -0.076400
     36 C14          2.6100   -13.1370    16.0580 c3         0 JUS      -0.079400
     37 C15          3.7420   -12.5000    16.8550 c3         0 JUS      -0.078400
     38 C16          5.1070   -12.4570    16.1750 c3         0 JUS      -0.080400
     39 C17          5.9730   -11.2400    16.4710 c3         0 JUS      -0.093100
     40 C18          5.3390   -21.6950    10.2800 cg         0 JUS       0.250800
     41 O            3.9670   -17.0870    10.2740 oh         0 JUS      -0.477100
     42 N            4.6000   -22.5440     9.7640 n1         0 JUS      -0.367800
     43 O1           4.1940   -19.5460    11.6930 os         0 JUS      -0.222200
@<TRIPOS>BOND
     1     1    22 1   
     2     2    25 1   
     3     3    30 1   
     4     4    24 1   
     5     5    32 1   
     6     6    31 1   
     7     7    35 1   
     8     8    34 1   
     9     9    29 1   
    10    10    35 1   
    11    11    37 1   
    12    12    36 1   
    13    13    36 1   
    14    14    37 1   
    15    15    39 1   
    16    16    39 1   
    17    17    38 1   
    18    18    39 1   
    19    19    38 1   
    20    20    34 1   
    21    21    41 1   
    22    22    23 ar  
    23    22    27 ar  
    24    23    24 ar  
    25    23    34 1   
    26    24    25 ar  
    27    25    26 ar  
    28    26    27 ar  
    29    26    43 1   
    30    27    41 1   
    31    28    29 ar  
    32    28    33 ar  
    33    28    43 1   
    34    29    30 ar  
    35    30    31 ar  
    36    31    32 ar  
    37    32    33 ar  
    38    33    40 1   
    39    34    35 1   
    40    35    36 1   
    41    36    37 1   
    42    37    38 1   
    43    38    39 1   
    44    40    42 3   
@<TRIPOS>SUBSTRUCTURE
     1 JUS         1 TEMP              0 ****  ****    0 ROOT
