@<TRIPOS>MOLECULE
JUS
   43    44     1     0     0
SMALL
bcc


@<TRIPOS>ATOM
      1 CAD          5.3390   -21.6950    10.2800 cg       302 JUS       0.250800
      2 NAB          4.6000   -22.5440     9.7640 n1       302 JUS      -0.367800
      3 C1           2.9850   -16.0630    12.2230 ca       302 JUS      -0.210000
      4 C2           2.5540   -16.1660    13.5600 ca       302 JUS      -0.029300
      5 C3           2.6890   -17.4000    14.2990 ca       302 JUS      -0.159000
      6 C4           3.2510   -18.5240    13.6540 ca       302 JUS      -0.091000
      7 C5           3.6640   -18.4220    12.3460 ca       302 JUS       0.039100
      8 C6           3.5270   -17.1550    11.6050 ca       302 JUS       0.132100
      9 O7           4.1940   -19.5460    11.6930 os       302 JUS      -0.222200
     10 C8           5.5940   -19.5420    11.6320 ca       302 JUS       0.169100
     11 C9           6.3590   -18.5810    12.2270 ca       302 JUS      -0.195000
     12 C10          7.7610   -18.6450    12.1220 ca       302 JUS      -0.076000
     13 C11          8.3950   -19.7240    11.4190 ca       302 JUS      -0.170000
     14 C12          7.6060   -20.7300    10.8230 ca       302 JUS      -0.065000
     15 C13          6.2460   -20.6500    10.9110 ca       302 JUS      -0.045000
     16 C14          1.9870   -14.9470    14.2720 c3       302 JUS      -0.043100
     17 C15          3.0280   -14.3050    15.1840 c3       302 JUS      -0.076400
     18 C16          2.6100   -13.1370    16.0580 c3       302 JUS      -0.079400
     19 C17          3.7420   -12.5000    16.8550 c3       302 JUS      -0.078400
     20 O17          3.9670   -17.0870    10.2740 oh       302 JUS      -0.477100
     21 C18          5.1070   -12.4570    16.1750 c3       302 JUS      -0.080400
     22 C19          5.9730   -11.2400    16.4710 c3       302 JUS      -0.093100
     23 H01          2.8870   -15.1200    11.6850 ha       302 JUS       0.140000
     24 H02          2.3630   -17.4630    15.3370 ha       302 JUS       0.142000
     25 H03          3.3570   -19.4670    14.1900 ha       302 JUS       0.153000
     26 H04          5.8870   -17.7690    12.7800 ha       302 JUS       0.151000
     27 H05          8.3720   -17.8670    12.5790 ha       302 JUS       0.137000
     28 H06          9.4820   -19.7660    11.3460 ha       302 JUS       0.140000
     29 H07          8.0770   -21.5610    10.2980 ha       302 JUS       0.146000
     30 H08          1.1440   -15.2670    14.8840 hc       302 JUS       0.052700
     31 H09          1.6670   -14.2170    13.5280 hc       302 JUS       0.052700
     32 H10          3.7530   -13.8730    14.4940 hc       302 JUS       0.045700
     33 H11          3.4000   -15.0860    15.8470 hc       302 JUS       0.045700
     34 H12          1.9070   -13.5360    16.7890 hc       302 JUS       0.040200
     35 H13          2.1730   -12.3720    15.4170 hc       302 JUS       0.040200
     36 H14          3.8740   -13.1360    17.7310 hc       302 JUS       0.041200
     37 H15          3.4520   -11.4750    17.0840 hc       302 JUS       0.041200
     38 H16          3.9250   -16.1780     9.9690 ho       302 JUS       0.422000
     39 H17          4.8960   -12.4090    15.1070 hc       302 JUS       0.038700
     40 H18          5.6610   -13.3430    16.4860 hc       302 JUS       0.038700
     41 H19          6.9000   -11.3070    15.9020 hc       302 JUS       0.033367
     42 H20          5.4380   -10.3340    16.1860 hc       302 JUS       0.033367
     43 H21          6.2030   -11.2070    17.5360 hc       302 JUS       0.033367
@<TRIPOS>BOND
     1     1     2 3   
     2     1    15 1   
     3     3     4 ar  
     4     3     8 ar  
     5     3    23 1   
     6     4     5 ar  
     7     4    16 1   
     8     5     6 ar  
     9     5    24 1   
    10     6     7 ar  
    11     6    25 1   
    12     7     8 ar  
    13     7     9 1   
    14     8    20 1   
    15     9    10 1   
    16    10    11 ar  
    17    10    15 ar  
    18    11    12 ar  
    19    11    26 1   
    20    12    13 ar  
    21    12    27 1   
    22    13    14 ar  
    23    13    28 1   
    24    14    15 ar  
    25    14    29 1   
    26    16    17 1   
    27    16    30 1   
    28    16    31 1   
    29    17    18 1   
    30    17    32 1   
    31    17    33 1   
    32    18    19 1   
    33    18    34 1   
    34    18    35 1   
    35    19    21 1   
    36    19    36 1   
    37    19    37 1   
    38    20    38 1   
    39    21    22 1   
    40    21    39 1   
    41    21    40 1   
    42    22    41 1   
    43    22    42 1   
    44    22    43 1   
@<TRIPOS>SUBSTRUCTURE
     1 JUS         1 TEMP              0 ****  ****    0 ROOT
