@<TRIPOS>MOLECULE
6FJ
   48    51     1     0     0
SMALL
bcc


@<TRIPOS>ATOM
      1 H10          4.7740    31.2970    26.4320 h1         0 6FJ       0.085200
      2 H07          0.3650    30.3470    27.0100 ho         0 6FJ       0.438000
      3 H17          6.9130    28.8620    22.2450 ha         0 6FJ       0.163000
      4 H08         -1.0240    35.3110    19.5860 hn         0 6FJ       0.344500
      5 H13          1.2720    30.1340    24.4280 h1         0 6FJ       0.049367
      6 H09          4.0160    36.7060    24.9580 ha         0 6FJ       0.159000
      7 H11          4.3990    29.5640    26.4020 h1         0 6FJ       0.085200
      8 H15          1.9610    28.9460    25.5600 h1         0 6FJ       0.049367
      9 H03          2.6450    38.0390    26.5610 ha         0 6FJ       0.145000
     10 H12          0.1970    38.1770    26.2470 ha         0 6FJ       0.144000
     11 H01         -0.9070    37.0540    24.3390 ha         0 6FJ       0.143000
     12 H02         -2.3760    31.9400    26.0010 ha         0 6FJ       0.177000
     13 H14          2.8020    29.3140    24.0340 h1         0 6FJ       0.049367
     14 H16          6.3250    31.3760    21.7060 h4         0 6FJ       0.057100
     15 H06         -3.0180    32.5600    23.2060 ho         0 6FJ       0.439000
     16 H05          1.8510    33.3920    23.7650 ha         0 6FJ       0.167000
     17 H04          5.8290    28.2740    24.6690 ha         0 6FJ       0.161000
     18 C            0.1720    36.9690    24.4660 ca         0 6FJ      -0.098000
     19 C1          -0.1970    31.8900    26.0580 ca         0 6FJ       0.209100
     20 C2          -1.4530    32.2350    25.5020 ca         0 6FJ      -0.210000
     21 C3           0.9970    32.3590    25.4620 ca         0 6FJ      -0.255600
     22 C4          -0.3440    34.3220    22.5150 cc         0 6FJ       0.426500
     23 C5           0.0440    36.0770    21.2440 c          0 6FJ       0.740500
     24 C6           0.9290    36.2180    23.5480 ca         0 6FJ       0.003600
     25 C7           2.1700    37.5270    25.7240 ca         0 6FJ      -0.087000
     26 C8           2.3700    31.9790    25.9000 c          0 6FJ       0.665700
     27 C9           5.1210    30.3430    24.5410 cc         0 6FJ       0.204000
     28 C10          5.7630    29.2220    24.1360 cd         0 6FJ      -0.247300
     29 C11         -1.4950    32.9640    24.2960 ca         0 6FJ       0.218100
     30 C12         -0.3090    33.4510    23.7170 ca         0 6FJ      -0.242900
     31 C13          0.9310    33.0950    24.2680 ca         0 6FJ       0.012000
     32 N           -0.9530    34.0860    21.3650 nd         0 6FJ      -0.518300
     33 N1           0.2830    35.5600    22.4630 n          0 6FJ      -0.306500
     34 O           -2.6910    33.3000    23.7230 oh         0 6FJ      -0.484100
     35 O1          -0.0970    31.1690    27.1920 oh         0 6FJ      -0.486100
     36 N2          -0.7040    35.1940    20.5370 n          0 6FJ      -0.261900
     37 O2           0.4230    37.1880    20.8770 o          0 6FJ      -0.580500
     38 C14          2.3170    36.1360    23.7450 ca         0 6FJ       0.155900
     39 C15          2.9370    36.7830    24.8230 ca         0 6FJ      -0.157000
     40 N3           2.9400    30.7980    25.5070 n          0 6FJ      -0.459800
     41 O3           3.0260    32.8140    26.5030 o          0 6FJ      -0.573100
     42 C16          4.3470    30.4920    25.8330 c3         0 6FJ       0.050700
     43 C17          0.7990    37.6060    25.5400 ca         0 6FJ      -0.139000
     44 C18          2.1970    29.7300    24.8400 c3         0 6FJ       0.065300
     45 O4           5.2760    31.3040    23.6010 os         0 6FJ      -0.352800
     46 C19          6.0210    30.8240    22.5960 cc         0 6FJ       0.245600
     47 C20          6.3320    29.5350    22.8750 cd         0 6FJ      -0.266300
     48 F            3.0530    35.4300    22.8630 f          0 6FJ      -0.124900
@<TRIPOS>BOND
     1     1    42 1   
     2     2    35 1   
     3     3    47 1   
     4     4    36 1   
     5     5    44 1   
     6     6    39 1   
     7     7    42 1   
     8     8    44 1   
     9     9    25 1   
    10    10    43 1   
    11    11    18 1   
    12    12    20 1   
    13    13    44 1   
    14    14    46 1   
    15    15    34 1   
    16    16    31 1   
    17    17    28 1   
    18    18    24 ar  
    19    18    43 ar  
    20    19    20 ar  
    21    19    21 ar  
    22    19    35 1   
    23    20    29 ar  
    24    21    26 1   
    25    21    31 ar  
    26    22    30 1   
    27    22    32 2   
    28    22    33 1   
    29    23    33 1   
    30    23    36 1   
    31    23    37 2   
    32    24    33 1   
    33    24    38 ar  
    34    25    39 ar  
    35    25    43 ar  
    36    26    40 1   
    37    26    41 2   
    38    27    28 2   
    39    27    42 1   
    40    27    45 1   
    41    28    47 1   
    42    29    30 ar  
    43    29    34 1   
    44    30    31 ar  
    45    32    36 1   
    46    38    39 ar  
    47    38    48 1   
    48    40    42 1   
    49    40    44 1   
    50    45    46 1   
    51    46    47 2   
@<TRIPOS>SUBSTRUCTURE
     1 6FJ         1 TEMP              0 ****  ****    0 ROOT
