@<TRIPOS>MOLECULE
6FJ
   47    50     1     0     0
SMALL
bcc


@<TRIPOS>ATOM
      1 C1           0.1720    36.9690    24.4660 ca       301 6FJ      -0.147000
      2 C2          -0.1970    31.8900    26.0580 ca       301 6FJ       0.187100
      3 C3          -1.4530    32.2350    25.5020 ca       301 6FJ      -0.220000
      4 C4          -1.4950    32.9640    24.2960 ca       301 6FJ       0.186100
      5 C5          -0.3090    33.4510    23.7170 ca       301 6FJ      -0.115900
      6 C6           0.9310    33.0950    24.2680 ca       301 6FJ      -0.041000
      7 C7           0.9970    32.3590    25.4620 ca       301 6FJ      -0.264600
      8 C8          -0.3440    34.3220    22.5150 cc       301 6FJ       0.016200
      9 N9          -0.9530    34.0860    21.3650 nc       301 6FJ      -0.245300
     10 N10          0.2830    35.5600    22.4630 n        301 6FJ      -0.278600
     11 O11         -2.6910    33.3000    23.7230 oh       301 6FJ      -0.509100
     12 O12         -0.0970    31.1690    27.1920 oh       301 6FJ      -0.518100
     13 N13         -0.7040    35.1940    20.5370 nd       301 6FJ      -0.415400
     14 C14          0.0440    36.0770    21.2440 c        301 6FJ       0.736900
     15 O15          0.4230    37.1880    20.8770 o        301 6FJ      -0.665500
     16 C16          0.9290    36.2180    23.5480 ca       301 6FJ       0.065600
     17 C17          2.3170    36.1360    23.7450 ca       301 6FJ       0.116900
     18 C18          2.9370    36.7830    24.8230 ca       301 6FJ      -0.168000
     19 C19          2.1700    37.5270    25.7240 ca       301 6FJ      -0.148000
     20 C20          2.3700    31.9790    25.9000 c        301 6FJ       0.699700
     21 N21          2.9400    30.7980    25.5070 n        301 6FJ      -0.461800
     22 O22          3.0260    32.8140    26.5030 o        301 6FJ      -0.652100
     23 C23          4.3470    30.4920    25.8330 c3       301 6FJ       0.059700
     24 C24          5.1210    30.3430    24.5410 cc       301 6FJ       0.220000
     25 C25          0.7990    37.6060    25.5400 ca       301 6FJ      -0.135000
     26 C26          2.1970    29.7300    24.8400 c3       301 6FJ       0.071300
     27 O27          5.2760    31.3040    23.6010 os       301 6FJ      -0.337800
     28 C28          6.0210    30.8240    22.5960 cc       301 6FJ       0.247600
     29 C29          6.3320    29.5350    22.8750 cd       301 6FJ      -0.277300
     30 C30          5.7630    29.2220    24.1360 cd       301 6FJ      -0.268300
     31 F31          3.0530    35.4300    22.8630 f        301 6FJ      -0.129900
     32 H01         -0.9070    37.0540    24.3390 ha       301 6FJ       0.145000
     33 H02         -2.3760    31.9400    26.0010 ha       301 6FJ       0.155000
     34 H03          1.8510    33.3920    23.7650 ha       301 6FJ       0.157000
     35 H04         -3.0180    32.5600    23.2060 ho       301 6FJ       0.455000
     36 H05          0.3650    30.3470    27.0100 ho       301 6FJ       0.443000
     37 H06          4.0160    36.7060    24.9580 ha       301 6FJ       0.129000
     38 H07          2.6450    38.0390    26.5610 ha       301 6FJ       0.118000
     39 H08          4.4030    29.5680    26.4090 h1       301 6FJ       0.076200
     40 H09          4.7720    31.3020    26.4250 h1       301 6FJ       0.076200
     41 H10          0.1970    38.1770    26.2470 ha       301 6FJ       0.121000
     42 H11          1.2720    30.1340    24.4280 h1       301 6FJ       0.049367
     43 H12          2.8020    29.3140    24.0340 h1       301 6FJ       0.049367
     44 H13          1.9610    28.9460    25.5600 h1       301 6FJ       0.049367
     45 H14          6.3250    31.3760    21.7060 h4       301 6FJ       0.060100
     46 H15          6.9130    28.8620    22.2450 ha       301 6FJ       0.154000
     47 H16          5.8290    28.2740    24.6690 ha       301 6FJ       0.153000
@<TRIPOS>BOND
     1     1    16 ar  
     2     1    25 ar  
     3     1    32 1   
     4     2     3 ar  
     5     2     7 ar  
     6     2    12 1   
     7     3     4 ar  
     8     3    33 1   
     9     4     5 ar  
    10     4    11 1   
    11     5     6 ar  
    12     5     8 1   
    13     6     7 ar  
    14     6    34 1   
    15     7    20 1   
    16     8     9 1   
    17     8    10 2   
    18     9    13 2   
    19    10    14 1   
    20    10    16 1   
    21    11    35 1   
    22    12    36 1   
    23    13    14 1   
    24    14    15 2   
    25    16    17 ar  
    26    17    18 ar  
    27    17    31 1   
    28    18    19 ar  
    29    18    37 1   
    30    19    25 ar  
    31    19    38 1   
    32    20    21 1   
    33    20    22 2   
    34    21    23 1   
    35    21    26 1   
    36    23    24 1   
    37    23    39 1   
    38    23    40 1   
    39    24    27 1   
    40    24    30 2   
    41    25    41 1   
    42    26    42 1   
    43    26    43 1   
    44    26    44 1   
    45    27    28 1   
    46    28    29 2   
    47    28    45 1   
    48    29    30 1   
    49    29    46 1   
    50    30    47 1   
@<TRIPOS>SUBSTRUCTURE
     1 6FJ         1 TEMP              0 ****  ****    0 ROOT
