@<TRIPOS>MOLECULE
6G7
   30    32     1     0     0
SMALL
bcc


@<TRIPOS>ATOM
      1 C1          -1.5020    11.8960    22.6250 ca       301 6G7       0.117100
      2 C2          -2.7760    11.5690    23.1120 ca       301 6G7      -0.256000
      3 C3          -2.8820    10.7870    24.2410 ca       301 6G7       0.163100
      4 C4          -1.7370    10.3590    24.9110 ca       301 6G7      -0.108900
      5 C5          -0.4680    10.6830    24.4140 ca       301 6G7      -0.070000
      6 C6          -0.3610    11.4700    23.2840 ca       301 6G7      -0.196000
      7 O7          -1.3740    12.6040    21.4730 oh       301 6G7      -0.514100
      8 O8          -4.1130    10.4730    24.7470 oh       301 6G7      -0.519100
      9 C9          -1.8020     9.4500    26.0460 cc       301 6G7       0.031200
     10 N10         -2.5640     9.6300    27.0970 nc       301 6G7      -0.249300
     11 N11         -2.3710     8.5030    27.9270 nd       301 6G7      -0.419400
     12 C12         -1.5450     7.6380    27.3300 c        301 6G7       0.737900
     13 N13         -1.1610     8.1970    26.1510 n        301 6G7      -0.282600
     14 C14         -0.2950     7.5730    25.2080 ca       301 6G7       0.072600
     15 C15          1.0200     7.4080    25.5890 ca       301 6G7       0.114900
     16 C16          1.9510     6.8630    24.7070 ca       301 6G7      -0.168000
     17 C17          1.5330     6.4620    23.4330 ca       301 6G7      -0.154000
     18 C18          0.2030     6.6220    23.0770 ca       301 6G7      -0.136000
     19 C19         -0.7190     7.1920    23.9420 ca       301 6G7      -0.150000
     20 O20         -1.1910     6.5610    27.7820 o        301 6G7      -0.671500
     21 F21          1.3790     7.7530    26.8410 f        301 6G7      -0.126900
     22 H01         -3.6710    11.9290    22.6040 ha       301 6G7       0.134000
     23 H02          0.4280    10.3170    24.9150 ha       301 6G7       0.148000
     24 H03          0.6220    11.7560    22.9110 ha       301 6G7       0.135000
     25 H04         -1.7250    13.4890    21.6000 ho       301 6G7       0.406000
     26 H05         -4.3610    11.1210    25.4110 ho       301 6G7       0.452000
     27 H06          2.9930     6.7500    25.0060 ha       301 6G7       0.129000
     28 H07          2.2440     6.0290    22.7300 ha       301 6G7       0.116000
     29 H08         -0.1270     6.2910    22.0920 ha       301 6G7       0.118000
     30 H09         -1.7550     7.3380    23.6350 ha       301 6G7       0.146000
@<TRIPOS>BOND
     1     1     2 ar  
     2     1     6 ar  
     3     1     7 1   
     4     2     3 ar  
     5     2    22 1   
     6     3     4 ar  
     7     3     8 1   
     8     4     5 ar  
     9     4     9 1   
    10     5     6 ar  
    11     5    23 1   
    12     6    24 1   
    13     7    25 1   
    14     8    26 1   
    15     9    10 1   
    16     9    13 2   
    17    10    11 2   
    18    11    12 1   
    19    12    13 1   
    20    12    20 2   
    21    13    14 1   
    22    14    15 ar  
    23    14    19 ar  
    24    15    16 ar  
    25    15    21 1   
    26    16    17 ar  
    27    16    27 1   
    28    17    18 ar  
    29    17    28 1   
    30    18    19 ar  
    31    18    29 1   
    32    19    30 1   
@<TRIPOS>SUBSTRUCTURE
     1 6G7         1 TEMP              0 ****  ****    0 ROOT
