@<TRIPOS>MOLECULE
6G7
   31    33     1     0     0
SMALL
bcc


@<TRIPOS>ATOM
      1 H04          0.4280    10.3170    24.9150 ha         0 6G7       0.148000
      2 H02          2.9930     6.7500    25.0060 ha         0 6G7       0.155000
      3 H09          2.2440     6.0290    22.7300 ha         0 6G7       0.144000
      4 H03         -1.7550     7.3380    23.6350 ha         0 6G7       0.155000
      5 H07         -4.3610    11.1210    25.4110 ho         0 6G7       0.441000
      6 H08         -2.7940     8.3710    28.8350 hn         0 6G7       0.342500
      7 H01         -3.6710    11.9290    22.6040 ha         0 6G7       0.158000
      8 H06         -1.7250    13.4890    21.6000 ho         0 6G7       0.426000
      9 H10         -0.1270     6.2910    22.0920 ha         0 6G7       0.145000
     10 H05          0.6220    11.7560    22.9110 ha         0 6G7       0.159000
     11 C           -1.5020    11.8960    22.6250 ca         0 6G7       0.179100
     12 C1          -2.7760    11.5690    23.1120 ca         0 6G7      -0.260000
     13 C2          -2.8820    10.7870    24.2410 ca         0 6G7       0.215100
     14 C3          -1.8020     9.4500    26.0460 cc         0 6G7       0.428500
     15 C4          -1.5450     7.6380    27.3300 c          0 6G7       0.735500
     16 C5          -0.2950     7.5730    25.2080 ca         0 6G7       0.015600
     17 C6           1.0200     7.4080    25.5890 ca         0 6G7       0.124900
     18 C7           1.9510     6.8630    24.7070 ca         0 6G7      -0.161000
     19 C8          -0.7190     7.1920    23.9420 ca         0 6G7      -0.076000
     20 C9          -1.7370    10.3590    24.9110 ca         0 6G7      -0.244900
     21 C10         -0.4680    10.6830    24.4140 ca         0 6G7      -0.032000
     22 C11         -0.3610    11.4700    23.2840 ca         0 6G7      -0.195000
     23 O           -1.3740    12.6040    21.4730 oh         0 6G7      -0.490100
     24 O1          -4.1130    10.4730    24.7470 oh         0 6G7      -0.489100
     25 N           -2.5640     9.6300    27.0970 nd         0 6G7      -0.509300
     26 N1          -2.3710     8.5030    27.9270 n          0 6G7      -0.256900
     27 N2          -1.1610     8.1970    26.1510 n          0 6G7      -0.313500
     28 C12          1.5330     6.4620    23.4330 ca         0 6G7      -0.091000
     29 C13          0.2030     6.6220    23.0770 ca         0 6G7      -0.140000
     30 O2          -1.1910     6.5610    27.7820 o          0 6G7      -0.579500
     31 F            1.3790     7.7530    26.8410 f          0 6G7      -0.134900
@<TRIPOS>BOND
     1     1    21 1   
     2     2    18 1   
     3     3    28 1   
     4     4    19 1   
     5     5    24 1   
     6     6    26 1   
     7     7    12 1   
     8     8    23 1   
     9     9    29 1   
    10    10    22 1   
    11    11    12 ar  
    12    11    22 ar  
    13    11    23 1   
    14    12    13 ar  
    15    13    20 ar  
    16    13    24 1   
    17    14    20 1   
    18    14    25 2   
    19    14    27 1   
    20    15    26 1   
    21    15    27 1   
    22    15    30 2   
    23    16    17 ar  
    24    16    19 ar  
    25    16    27 1   
    26    17    18 ar  
    27    17    31 1   
    28    18    28 ar  
    29    19    29 ar  
    30    20    21 ar  
    31    21    22 ar  
    32    25    26 1   
    33    28    29 ar  
@<TRIPOS>SUBSTRUCTURE
     1 6G7         1 TEMP              0 ****  ****    0 ROOT
