@<TRIPOS>MOLECULE
/web/media/ligands/5J86_ligand.pdb
 31 34 0 0 0
SMALL
GASTEIGER

@<TRIPOS>ATOM
      1 C         -33.3160   -7.5230   24.7270 C.ar    1  UNL1        0.0174
      2 C         -32.7820  -12.3650   23.0140 C.ar    1  UNL1        0.2032
      3 C         -31.5120  -12.0450   23.5220 C.ar    1  UNL1        0.0843
      4 C         -33.9430  -11.9340   23.6860 C.ar    1  UNL1        0.0927
      5 C         -32.5030  -10.0530   26.6170 C.ar    1  UNL1        0.1758
      6 C         -32.8810   -8.3560   27.9790 C.ar    1  UNL1        0.3729
      7 C         -33.9710   -8.1790   25.7790 C.ar    1  UNL1        0.0658
      8 C         -35.4390   -6.8920   23.7630 C.ar    1  UNL1       -0.0002
      9 C         -36.1470   -8.8510   26.9160 C.3     1  UNL1        0.0326
     10 C         -35.3290  -12.3140   23.3230 C.2     1  UNL1        0.2524
     11 C         -37.2190  -13.9100   23.5240 C.3     1  UNL1        0.1269
     12 C         -34.9180  -14.5340   24.3340 C.3     1  UNL1        0.1155
     13 C         -39.0900  -15.1110   26.5350 C.ar    1  UNL1        0.0072
     14 C         -38.5120  -15.2110   25.2780 C.ar    1  UNL1        0.0044
     15 C         -31.4150  -11.3170   24.7110 C.ar    1  UNL1        0.2018
     16 C         -32.5720  -10.9120   25.4060 C.ar    1  UNL1        0.0756
     17 C         -33.8230  -11.2360   24.8900 C.ar    1  UNL1        0.0140
     18 N         -31.8170  -10.2850   27.7080 N.ar    1  UNL1       -0.1254
     19 N         -33.1720   -8.8380   26.7560 N.ar    1  UNL1       -0.2410
     20 O         -30.2020  -11.0240   25.2310 O.3     1  UNL1       -0.2864
     21 O         -32.8970  -13.0350   21.8490 O.3     1  UNL1       -0.2863
     22 N         -32.0550   -9.2300   28.5860 N.ar    1  UNL1       -0.0879
     23 O         -33.3010   -7.3140   28.4450 O.2     1  UNL1       -0.2424
     24 C         -35.3790   -8.1760   25.8120 C.ar    1  UNL1       -0.0055
     25 C         -36.1090   -7.5410   24.7990 C.ar    1  UNL1       -0.0028
     26 N         -35.8020  -13.5390   23.7020 N.am    1  UNL1       -0.2696
     27 O         -36.0620  -11.4870   22.8190 O.2     1  UNL1       -0.2698
     28 C         -37.9350  -14.0850   24.8410 C.ar    1  UNL1        0.0273
     29 C         -34.0430   -6.8890   23.7220 C.ar    1  UNL1        0.0015
     30 S         -38.1140  -12.8170   26.0430 S.2     1  UNL1       -0.0891
     31 C         -38.9970  -13.9030   27.1130 C.ar    1  UNL1        0.0352
@<TRIPOS>BOND
     1     1     7   ar
     2     2     3   ar
     3     2     4   ar
     4     3    15   ar
     5     4    17   ar
     6     5    19   ar
     7     5    18   ar
     8     6    23    2
     9     6    22   ar
    10     7    24   ar
    11     7    19    1
    12     8    25   ar
    13    10     4    1
    14    10    26   am
    15    11    26    1
    16    11    28    1
    17    13    31   ar
    18    14    13   ar
    19    15    20    1
    20    15    16   ar
    21    16     5    1
    22    17    16   ar
    23    18    22   ar
    24    19     6   ar
    25    21     2    1
    26    24     9    1
    27    25    24   ar
    28    26    12    1
    29    27    10    2
    30    28    14   ar
    31    28    30   ar
    32    29     8   ar
    33    29     1   ar
    34    30    31   ar
