REMARK  Name = /Users/mlugowska/PhD/ML_residence_time_prediction/protein_files/5J20_protein.pdb
REMARK  961 active torsions:
REMARK  status: ('A' for Active; 'I' for Inactive)
REMARK    1  A    between atoms: _2  and  _3
REMARK    2  A    between atoms: _2  and  _5
REMARK    3  A    between atoms: _10  and  _11
REMARK    4  A    between atoms: _11  and  _12
REMARK    5  A    between atoms: _11  and  _14
REMARK    6  A    between atoms: _14  and  _15
REMARK    7  A    between atoms: _14  and  _16
REMARK    8  A    between atoms: _26  and  _27
REMARK    9  A    between atoms: _27  and  _28
REMARK   10  A    between atoms: _27  and  _30
REMARK   11  A    between atoms: _30  and  _31
REMARK   12  A    between atoms: _31  and  _32
REMARK   13  A    between atoms: _41  and  _42
REMARK   14  A    between atoms: _42  and  _43
REMARK   15  A    between atoms: _42  and  _45
REMARK   16  A    between atoms: _45  and  _46
REMARK   17  A    between atoms: _45  and  _47
REMARK   18  A    between atoms: _55  and  _56
REMARK   19  A    between atoms: _56  and  _57
REMARK   20  A    between atoms: _56  and  _59
REMARK   21  A    between atoms: _59  and  _60
REMARK   22  A    between atoms: _75  and  _76
REMARK   23  A    between atoms: _76  and  _77
REMARK   24  A    between atoms: _76  and  _79
REMARK   25  A    between atoms: _85  and  _86
REMARK   26  A    between atoms: _86  and  _87
REMARK   27  A    between atoms: _86  and  _89
REMARK   28  A    between atoms: _89  and  _90
REMARK   29  A    between atoms: _105  and  _106
REMARK   30  A    between atoms: _106  and  _107
REMARK   31  A    between atoms: _106  and  _109
REMARK   32  A    between atoms: _109  and  _110
REMARK   33  A    between atoms: _110  and  _111
REMARK   34  A    between atoms: _122  and  _123
REMARK   35  A    between atoms: _123  and  _124
REMARK   36  A    between atoms: _123  and  _126
REMARK   37  A    between atoms: _132  and  _133
REMARK   38  A    between atoms: _133  and  _134
REMARK   39  A    between atoms: _133  and  _136
REMARK   40  A    between atoms: _136  and  _137
REMARK   41  A    between atoms: _137  and  _138
REMARK   42  A    between atoms: _147  and  _148
REMARK   43  A    between atoms: _148  and  _149
REMARK   44  A    between atoms: _148  and  _151
REMARK   45  A    between atoms: _151  and  _152
REMARK   46  A    between atoms: _151  and  _153
REMARK   47  A    between atoms: _152  and  _154
REMARK   48  A    between atoms: _166  and  _167
REMARK   49  A    between atoms: _167  and  _168
REMARK   50  A    between atoms: _167  and  _170
REMARK   51  A    between atoms: _176  and  _177
REMARK   52  A    between atoms: _177  and  _178
REMARK   53  A    between atoms: _177  and  _180
REMARK   54  A    between atoms: _180  and  _181
REMARK   55  A    between atoms: _181  and  _182
REMARK   56  A    between atoms: _193  and  _194
REMARK   57  A    between atoms: _194  and  _195
REMARK   58  A    between atoms: _194  and  _197
REMARK   59  A    between atoms: _197  and  _198
REMARK   60  A    between atoms: _198  and  _199
REMARK   61  A    between atoms: _198  and  _200
REMARK   62  A    between atoms: _212  and  _213
REMARK   63  A    between atoms: _213  and  _214
REMARK   64  A    between atoms: _213  and  _216
REMARK   65  A    between atoms: _216  and  _217
REMARK   66  A    between atoms: _217  and  _218
REMARK   67  A    between atoms: _218  and  _219
REMARK   68  A    between atoms: _229  and  _230
REMARK   69  A    between atoms: _230  and  _231
REMARK   70  A    between atoms: _230  and  _233
REMARK   71  A    between atoms: _233  and  _234
REMARK   72  A    between atoms: _240  and  _241
REMARK   73  A    between atoms: _241  and  _242
REMARK   74  A    between atoms: _241  and  _244
REMARK   75  A    between atoms: _244  and  _245
REMARK   76  A    between atoms: _245  and  _246
REMARK   77  A    between atoms: _245  and  _247
REMARK   78  A    between atoms: _259  and  _260
REMARK   79  A    between atoms: _260  and  _261
REMARK   80  A    between atoms: _260  and  _263
REMARK   81  A    between atoms: _263  and  _264
REMARK   82  A    between atoms: _263  and  _265
REMARK   83  A    between atoms: _264  and  _266
REMARK   84  A    between atoms: _278  and  _279
REMARK   85  A    between atoms: _279  and  _280
REMARK   86  A    between atoms: _279  and  _282
REMARK   87  A    between atoms: _282  and  _283
REMARK   88  A    between atoms: _282  and  _284
REMARK   89  A    between atoms: _283  and  _285
REMARK   90  A    between atoms: _297  and  _298
REMARK   91  A    between atoms: _298  and  _299
REMARK   92  A    between atoms: _298  and  _301
REMARK   93  A    between atoms: _301  and  _302
REMARK   94  A    between atoms: _311  and  _312
REMARK   95  A    between atoms: _312  and  _313
REMARK   96  A    between atoms: _312  and  _315
REMARK   97  A    between atoms: _315  and  _316
REMARK   98  A    between atoms: _315  and  _317
REMARK   99  A    between atoms: _325  and  _326
REMARK  100  A    between atoms: _326  and  _327
REMARK  101  A    between atoms: _326  and  _329
REMARK  102  A    between atoms: _329  and  _330
REMARK  103  A    between atoms: _345  and  _346
REMARK  104  A    between atoms: _346  and  _347
REMARK  105  A    between atoms: _346  and  _349
REMARK  106  A    between atoms: _349  and  _350
REMARK  107  A    between atoms: _355  and  _356
REMARK  108  A    between atoms: _366  and  _367
REMARK  109  A    between atoms: _367  and  _368
REMARK  110  A    between atoms: _367  and  _370
REMARK  111  A    between atoms: _370  and  _371
REMARK  112  A    between atoms: _377  and  _378
REMARK  113  A    between atoms: _378  and  _379
REMARK  114  A    between atoms: _378  and  _381
REMARK  115  A    between atoms: _381  and  _382
REMARK  116  A    between atoms: _391  and  _392
REMARK  117  A    between atoms: _392  and  _393
REMARK  118  A    between atoms: _392  and  _395
REMARK  119  A    between atoms: _395  and  _396
REMARK  120  A    between atoms: _396  and  _397
REMARK  121  A    between atoms: _397  and  _398
REMARK  122  A    between atoms: _398  and  _399
REMARK  123  A    between atoms: _413  and  _414
REMARK  124  A    between atoms: _414  and  _415
REMARK  125  A    between atoms: _414  and  _417
REMARK  126  A    between atoms: _417  and  _418
REMARK  127  A    between atoms: _418  and  _419
REMARK  128  A    between atoms: _428  and  _429
REMARK  129  A    between atoms: _429  and  _430
REMARK  130  A    between atoms: _429  and  _432
REMARK  131  A    between atoms: _432  and  _433
REMARK  132  A    between atoms: _432  and  _434
REMARK  133  A    between atoms: _433  and  _435
REMARK  134  A    between atoms: _447  and  _448
REMARK  135  A    between atoms: _448  and  _449
REMARK  136  A    between atoms: _448  and  _451
REMARK  137  A    between atoms: _451  and  _452
REMARK  138  A    between atoms: _467  and  _468
REMARK  139  A    between atoms: _468  and  _469
REMARK  140  A    between atoms: _468  and  _471
REMARK  141  A    between atoms: _471  and  _472
REMARK  142  A    between atoms: _472  and  _473
REMARK  143  A    between atoms: _472  and  _474
REMARK  144  A    between atoms: _486  and  _487
REMARK  145  A    between atoms: _487  and  _488
REMARK  146  A    between atoms: _487  and  _490
REMARK  147  A    between atoms: _490  and  _491
REMARK  148  A    between atoms: _491  and  _492
REMARK  149  A    between atoms: _492  and  _493
REMARK  150  A    between atoms: _510  and  _511
REMARK  151  A    between atoms: _511  and  _512
REMARK  152  A    between atoms: _511  and  _514
REMARK  153  A    between atoms: _514  and  _515
REMARK  154  A    between atoms: _515  and  _516
REMARK  155  A    between atoms: _525  and  _526
REMARK  156  A    between atoms: _526  and  _527
REMARK  157  A    between atoms: _526  and  _529
REMARK  158  A    between atoms: _529  and  _530
REMARK  159  A    between atoms: _530  and  _531
REMARK  160  A    between atoms: _530  and  _532
REMARK  161  A    between atoms: _544  and  _545
REMARK  162  A    between atoms: _545  and  _546
REMARK  163  A    between atoms: _545  and  _548
REMARK  164  A    between atoms: _548  and  _549
REMARK  165  A    between atoms: _548  and  _550
REMARK  166  A    between atoms: _549  and  _551
REMARK  167  A    between atoms: _563  and  _564
REMARK  168  A    between atoms: _564  and  _565
REMARK  169  A    between atoms: _564  and  _567
REMARK  170  A    between atoms: _567  and  _568
REMARK  171  A    between atoms: _574  and  _575
REMARK  172  A    between atoms: _575  and  _576
REMARK  173  A    between atoms: _575  and  _578
REMARK  174  A    between atoms: _578  and  _579
REMARK  175  A    between atoms: _588  and  _589
REMARK  176  A    between atoms: _589  and  _590
REMARK  177  A    between atoms: _589  and  _592
REMARK  178  A    between atoms: _592  and  _593
REMARK  179  A    between atoms: _599  and  _600
REMARK  180  A    between atoms: _600  and  _601
REMARK  181  A    between atoms: _600  and  _603
REMARK  182  A    between atoms: _603  and  _604
REMARK  183  A    between atoms: _610  and  _611
REMARK  184  A    between atoms: _611  and  _612
REMARK  185  A    between atoms: _611  and  _614
REMARK  186  A    between atoms: _614  and  _615
REMARK  187  A    between atoms: _622  and  _623
REMARK  188  A    between atoms: _623  and  _624
REMARK  189  A    between atoms: _623  and  _626
REMARK  190  A    between atoms: _632  and  _633
REMARK  191  A    between atoms: _633  and  _634
REMARK  192  A    between atoms: _633  and  _636
REMARK  193  A    between atoms: _636  and  _637
REMARK  194  A    between atoms: _637  and  _638
REMARK  195  A    between atoms: _637  and  _639
REMARK  196  A    between atoms: _651  and  _652
REMARK  197  A    between atoms: _652  and  _653
REMARK  198  A    between atoms: _652  and  _655
REMARK  199  A    between atoms: _655  and  _656
REMARK  200  A    between atoms: _663  and  _664
REMARK  201  A    between atoms: _664  and  _665
REMARK  202  A    between atoms: _664  and  _667
REMARK  203  A    between atoms: _667  and  _668
REMARK  204  A    between atoms: _668  and  _669
REMARK  205  A    between atoms: _669  and  _670
REMARK  206  A    between atoms: _670  and  _671
REMARK  207  A    between atoms: _685  and  _686
REMARK  208  A    between atoms: _686  and  _687
REMARK  209  A    between atoms: _686  and  _689
REMARK  210  A    between atoms: _689  and  _690
REMARK  211  A    between atoms: _689  and  _691
REMARK  212  A    between atoms: _690  and  _692
REMARK  213  A    between atoms: _704  and  _705
REMARK  214  A    between atoms: _705  and  _706
REMARK  215  A    between atoms: _705  and  _708
REMARK  216  A    between atoms: _708  and  _709
REMARK  217  A    between atoms: _709  and  _710
REMARK  218  A    between atoms: _710  and  _711
REMARK  219  A    between atoms: _728  and  _729
REMARK  220  A    between atoms: _729  and  _730
REMARK  221  A    between atoms: _729  and  _732
REMARK  222  A    between atoms: _732  and  _733
REMARK  223  A    between atoms: _738  and  _739
REMARK  224  A    between atoms: _749  and  _750
REMARK  225  A    between atoms: _750  and  _751
REMARK  226  A    between atoms: _750  and  _753
REMARK  227  A    between atoms: _753  and  _754
REMARK  228  A    between atoms: _754  and  _755
REMARK  229  A    between atoms: _764  and  _765
REMARK  230  A    between atoms: _765  and  _766
REMARK  231  A    between atoms: _765  and  _768
REMARK  232  A    between atoms: _772  and  _773
REMARK  233  A    between atoms: _773  and  _774
REMARK  234  A    between atoms: _773  and  _776
REMARK  235  A    between atoms: _776  and  _777
REMARK  236  A    between atoms: _777  and  _778
REMARK  237  A    between atoms: _777  and  _779
REMARK  238  A    between atoms: _791  and  _792
REMARK  239  A    between atoms: _792  and  _793
REMARK  240  A    between atoms: _792  and  _795
REMARK  241  A    between atoms: _795  and  _796
REMARK  242  A    between atoms: _795  and  _797
REMARK  243  A    between atoms: _805  and  _806
REMARK  244  A    between atoms: _806  and  _807
REMARK  245  A    between atoms: _806  and  _809
REMARK  246  A    between atoms: _809  and  _810
REMARK  247  A    between atoms: _818  and  _819
REMARK  248  A    between atoms: _831  and  _832
REMARK  249  A    between atoms: _832  and  _833
REMARK  250  A    between atoms: _832  and  _835
REMARK  251  A    between atoms: _835  and  _836
REMARK  252  A    between atoms: _842  and  _843
REMARK  253  A    between atoms: _843  and  _844
REMARK  254  A    between atoms: _843  and  _846
REMARK  255  A    between atoms: _846  and  _847
REMARK  256  A    between atoms: _847  and  _848
REMARK  257  A    between atoms: _848  and  _849
REMARK  258  A    between atoms: _849  and  _850
REMARK  259  A    between atoms: _864  and  _865
REMARK  260  A    between atoms: _865  and  _866
REMARK  261  A    between atoms: _865  and  _868
REMARK  262  A    between atoms: _868  and  _869
REMARK  263  A    between atoms: _869  and  _870
REMARK  264  A    between atoms: _869  and  _871
REMARK  265  A    between atoms: _883  and  _884
REMARK  266  A    between atoms: _884  and  _885
REMARK  267  A    between atoms: _884  and  _887
REMARK  268  A    between atoms: _887  and  _888
REMARK  269  A    between atoms: _895  and  _896
REMARK  270  A    between atoms: _896  and  _897
REMARK  271  A    between atoms: _896  and  _899
REMARK  272  A    between atoms: _899  and  _900
REMARK  273  A    between atoms: _906  and  _907
REMARK  274  A    between atoms: _907  and  _908
REMARK  275  A    between atoms: _913  and  _914
REMARK  276  A    between atoms: _914  and  _915
REMARK  277  A    between atoms: _914  and  _917
REMARK  278  A    between atoms: _917  and  _918
REMARK  279  A    between atoms: _918  and  _919
REMARK  280  A    between atoms: _919  and  _920
REMARK  281  A    between atoms: _920  and  _921
REMARK  282  A    between atoms: _935  and  _936
REMARK  283  A    between atoms: _936  and  _937
REMARK  284  A    between atoms: _936  and  _939
REMARK  285  A    between atoms: _939  and  _940
REMARK  286  A    between atoms: _940  and  _941
REMARK  287  A    between atoms: _950  and  _951
REMARK  288  A    between atoms: _951  and  _952
REMARK  289  A    between atoms: _951  and  _954
REMARK  290  A    between atoms: _954  and  _955
REMARK  291  A    between atoms: _955  and  _956
REMARK  292  A    between atoms: _955  and  _957
REMARK  293  A    between atoms: _969  and  _970
REMARK  294  A    between atoms: _970  and  _971
REMARK  295  A    between atoms: _970  and  _973
REMARK  296  A    between atoms: _973  and  _974
REMARK  297  A    between atoms: _986  and  _987
REMARK  298  A    between atoms: _987  and  _988
REMARK  299  A    between atoms: _987  and  _990
REMARK  300  A    between atoms: _990  and  _991
REMARK  301  A    between atoms: _990  and  _992
REMARK  302  A    between atoms: _991  and  _993
REMARK  303  A    between atoms: _1005  and  _1006
REMARK  304  A    between atoms: _1006  and  _1007
REMARK  305  A    between atoms: _1006  and  _1009
REMARK  306  A    between atoms: _1009  and  _1010
REMARK  307  A    between atoms: _1019  and  _1020
REMARK  308  A    between atoms: _1020  and  _1021
REMARK  309  A    between atoms: _1020  and  _1023
REMARK  310  A    between atoms: _1023  and  _1024
REMARK  311  A    between atoms: _1024  and  _1025
REMARK  312  A    between atoms: _1024  and  _1026
REMARK  313  A    between atoms: _1038  and  _1039
REMARK  314  A    between atoms: _1039  and  _1040
REMARK  315  A    between atoms: _1039  and  _1042
REMARK  316  A    between atoms: _1042  and  _1043
REMARK  317  A    between atoms: _1042  and  _1044
REMARK  318  A    between atoms: _1043  and  _1045
REMARK  319  A    between atoms: _1058  and  _1059
REMARK  320  A    between atoms: _1071  and  _1072
REMARK  321  A    between atoms: _1072  and  _1073
REMARK  322  A    between atoms: _1072  and  _1075
REMARK  323  A    between atoms: _1075  and  _1076
REMARK  324  A    between atoms: _1085  and  _1086
REMARK  325  A    between atoms: _1086  and  _1087
REMARK  326  A    between atoms: _1086  and  _1089
REMARK  327  A    between atoms: _1089  and  _1090
REMARK  328  A    between atoms: _1090  and  _1091
REMARK  329  A    between atoms: _1091  and  _1092
REMARK  330  A    between atoms: _1092  and  _1093
REMARK  331  A    between atoms: _1107  and  _1108
REMARK  332  A    between atoms: _1108  and  _1109
REMARK  333  A    between atoms: _1108  and  _1111
REMARK  334  A    between atoms: _1111  and  _1112
REMARK  335  A    between atoms: _1112  and  _1113
REMARK  336  A    between atoms: _1124  and  _1125
REMARK  337  A    between atoms: _1125  and  _1126
REMARK  338  A    between atoms: _1125  and  _1128
REMARK  339  A    between atoms: _1128  and  _1129
REMARK  340  A    between atoms: _1136  and  _1137
REMARK  341  A    between atoms: _1137  and  _1138
REMARK  342  A    between atoms: _1137  and  _1140
REMARK  343  A    between atoms: _1140  and  _1141
REMARK  344  A    between atoms: _1141  and  _1142
REMARK  345  A    between atoms: _1142  and  _1143
REMARK  346  A    between atoms: _1160  and  _1161
REMARK  347  A    between atoms: _1161  and  _1162
REMARK  348  A    between atoms: _1161  and  _1164
REMARK  349  A    between atoms: _1164  and  _1165
REMARK  350  A    between atoms: _1164  and  _1166
REMARK  351  A    between atoms: _1174  and  _1175
REMARK  352  A    between atoms: _1175  and  _1176
REMARK  353  A    between atoms: _1175  and  _1178
REMARK  354  A    between atoms: _1178  and  _1179
REMARK  355  A    between atoms: _1179  and  _1180
REMARK  356  A    between atoms: _1179  and  _1181
REMARK  357  A    between atoms: _1193  and  _1194
REMARK  358  A    between atoms: _1194  and  _1195
REMARK  359  A    between atoms: _1194  and  _1197
REMARK  360  A    between atoms: _1197  and  _1198
REMARK  361  A    between atoms: _1197  and  _1199
REMARK  362  A    between atoms: _1207  and  _1208
REMARK  363  A    between atoms: _1208  and  _1209
REMARK  364  A    between atoms: _1208  and  _1211
REMARK  365  A    between atoms: _1211  and  _1212
REMARK  366  A    between atoms: _1211  and  _1213
REMARK  367  A    between atoms: _1212  and  _1214
REMARK  368  A    between atoms: _1226  and  _1227
REMARK  369  A    between atoms: _1227  and  _1228
REMARK  370  A    between atoms: _1227  and  _1230
REMARK  371  A    between atoms: _1230  and  _1231
REMARK  372  A    between atoms: _1230  and  _1232
REMARK  373  A    between atoms: _1242  and  _1243
REMARK  374  A    between atoms: _1243  and  _1244
REMARK  375  A    between atoms: _1243  and  _1246
REMARK  376  A    between atoms: _1246  and  _1247
REMARK  377  A    between atoms: _1254  and  _1255
REMARK  378  A    between atoms: _1255  and  _1256
REMARK  379  A    between atoms: _1255  and  _1258
REMARK  380  A    between atoms: _1258  and  _1259
REMARK  381  A    between atoms: _1258  and  _1260
REMARK  382  A    between atoms: _1268  and  _1269
REMARK  383  A    between atoms: _1269  and  _1270
REMARK  384  A    between atoms: _1275  and  _1276
REMARK  385  A    between atoms: _1276  and  _1277
REMARK  386  A    between atoms: _1276  and  _1279
REMARK  387  A    between atoms: _1279  and  _1280
REMARK  388  A    between atoms: _1279  and  _1281
REMARK  389  A    between atoms: _1280  and  _1282
REMARK  390  A    between atoms: _1294  and  _1295
REMARK  391  A    between atoms: _1295  and  _1296
REMARK  392  A    between atoms: _1301  and  _1302
REMARK  393  A    between atoms: _1302  and  _1303
REMARK  394  A    between atoms: _1302  and  _1305
REMARK  395  A    between atoms: _1305  and  _1306
REMARK  396  A    between atoms: _1306  and  _1307
REMARK  397  A    between atoms: _1307  and  _1308
REMARK  398  A    between atoms: _1318  and  _1319
REMARK  399  A    between atoms: _1319  and  _1320
REMARK  400  A    between atoms: _1319  and  _1322
REMARK  401  A    between atoms: _1322  and  _1323
REMARK  402  A    between atoms: _1322  and  _1324
REMARK  403  A    between atoms: _1332  and  _1333
REMARK  404  A    between atoms: _1333  and  _1334
REMARK  405  A    between atoms: _1333  and  _1336
REMARK  406  A    between atoms: _1336  and  _1337
REMARK  407  A    between atoms: _1337  and  _1338
REMARK  408  A    between atoms: _1338  and  _1339
REMARK  409  A    between atoms: _1339  and  _1340
REMARK  410  A    between atoms: _1354  and  _1355
REMARK  411  A    between atoms: _1355  and  _1356
REMARK  412  A    between atoms: _1355  and  _1358
REMARK  413  A    between atoms: _1364  and  _1365
REMARK  414  A    between atoms: _1365  and  _1366
REMARK  415  A    between atoms: _1365  and  _1368
REMARK  416  A    between atoms: _1368  and  _1369
REMARK  417  A    between atoms: _1376  and  _1377
REMARK  418  A    between atoms: _1377  and  _1378
REMARK  419  A    between atoms: _1377  and  _1380
REMARK  420  A    between atoms: _1380  and  _1381
REMARK  421  A    between atoms: _1381  and  _1382
REMARK  422  A    between atoms: _1381  and  _1383
REMARK  423  A    between atoms: _1395  and  _1396
REMARK  424  A    between atoms: _1396  and  _1399
REMARK  425  A    between atoms: _1399  and  _1400
REMARK  426  A    between atoms: _1399  and  _1401
REMARK  427  A    between atoms: _1400  and  _1402
REMARK  428  A    between atoms: _1422  and  _1425
REMARK  429  A    between atoms: _1424  and  _1428
REMARK  430  A    between atoms: _1425  and  _1427
REMARK  431  A    between atoms: _1443  and  _1444
REMARK  432  A    between atoms: _1443  and  _1446
REMARK  433  A    between atoms: _1446  and  _1447
REMARK  434  A    between atoms: _1457  and  _1458
REMARK  435  A    between atoms: _1458  and  _1459
REMARK  436  A    between atoms: _1458  and  _1461
REMARK  437  A    between atoms: _1461  and  _1462
REMARK  438  A    between atoms: _1462  and  _1463
REMARK  439  A    between atoms: _1462  and  _1464
REMARK  440  A    between atoms: _1476  and  _1477
REMARK  441  A    between atoms: _1477  and  _1478
REMARK  442  A    between atoms: _1483  and  _1484
REMARK  443  A    between atoms: _1484  and  _1485
REMARK  444  A    between atoms: _1484  and  _1487
REMARK  445  A    between atoms: _1487  and  _1488
REMARK  446  A    between atoms: _1487  and  _1489
REMARK  447  A    between atoms: _1497  and  _1498
REMARK  448  A    between atoms: _1498  and  _1499
REMARK  449  A    between atoms: _1498  and  _1501
REMARK  450  A    between atoms: _1501  and  _1502
REMARK  451  A    between atoms: _1501  and  _1503
REMARK  452  A    between atoms: _1502  and  _1504
REMARK  453  A    between atoms: _1516  and  _1517
REMARK  454  A    between atoms: _1517  and  _1518
REMARK  455  A    between atoms: _1517  and  _1520
REMARK  456  A    between atoms: _1526  and  _1527
REMARK  457  A    between atoms: _1527  and  _1528
REMARK  458  A    between atoms: _1527  and  _1530
REMARK  459  A    between atoms: _1530  and  _1531
REMARK  460  A    between atoms: _1531  and  _1532
REMARK  461  A    between atoms: _1532  and  _1533
REMARK  462  A    between atoms: _1533  and  _1534
REMARK  463  A    between atoms: _1548  and  _1549
REMARK  464  A    between atoms: _1549  and  _1550
REMARK  465  A    between atoms: _1549  and  _1552
REMARK  466  A    between atoms: _1552  and  _1553
REMARK  467  A    between atoms: _1559  and  _1560
REMARK  468  A    between atoms: _1560  and  _1561
REMARK  469  A    between atoms: _1566  and  _1567
REMARK  470  A    between atoms: _1567  and  _1568
REMARK  471  A    between atoms: _1567  and  _1570
REMARK  472  A    between atoms: _1570  and  _1571
REMARK  473  A    between atoms: _1570  and  _1572
REMARK  474  A    between atoms: _1580  and  _1581
REMARK  475  A    between atoms: _1581  and  _1582
REMARK  476  A    between atoms: _1581  and  _1584
REMARK  477  A    between atoms: _1584  and  _1585
REMARK  478  A    between atoms: _1585  and  _1586
REMARK  479  A    between atoms: _1586  and  _1587
REMARK  480  A    between atoms: _1587  and  _1588
REMARK  481  A    between atoms: _1602  and  _1603
REMARK  482  A    between atoms: _1603  and  _1604
REMARK  483  A    between atoms: _1603  and  _1606
REMARK  484  A    between atoms: _1612  and  _1613
REMARK  485  A    between atoms: _1613  and  _1614
REMARK  486  A    between atoms: _1613  and  _1616
REMARK  487  A    between atoms: _1616  and  _1617
REMARK  488  A    between atoms: _1632  and  _1633
REMARK  489  A    between atoms: _1633  and  _1634
REMARK  490  A    between atoms: _1633  and  _1636
REMARK  491  A    between atoms: _1636  and  _1637
REMARK  492  A    between atoms: _1637  and  _1638
REMARK  493  A    between atoms: _1638  and  _1639
REMARK  494  A    between atoms: _1649  and  _1650
REMARK  495  A    between atoms: _1650  and  _1651
REMARK  496  A    between atoms: _1650  and  _1653
REMARK  497  A    between atoms: _1653  and  _1654
REMARK  498  A    between atoms: _1654  and  _1655
REMARK  499  A    between atoms: _1664  and  _1665
REMARK  500  A    between atoms: _1665  and  _1666
REMARK  501  A    between atoms: _1665  and  _1668
REMARK  502  A    between atoms: _1674  and  _1675
REMARK  503  A    between atoms: _1675  and  _1676
REMARK  504  A    between atoms: _1675  and  _1678
REMARK  505  A    between atoms: _1678  and  _1679
REMARK  506  A    between atoms: _1679  and  _1680
REMARK  507  A    between atoms: _1679  and  _1681
REMARK  508  A    between atoms: _1693  and  _1694
REMARK  509  A    between atoms: _1694  and  _1695
REMARK  510  A    between atoms: _1694  and  _1697
REMARK  511  A    between atoms: _1697  and  _1698
REMARK  512  A    between atoms: _1698  and  _1699
REMARK  513  A    between atoms: _1710  and  _1711
REMARK  514  A    between atoms: _1711  and  _1712
REMARK  515  A    between atoms: _1711  and  _1714
REMARK  516  A    between atoms: _1720  and  _1721
REMARK  517  A    between atoms: _1721  and  _1722
REMARK  518  A    between atoms: _1727  and  _1728
REMARK  519  A    between atoms: _1728  and  _1729
REMARK  520  A    between atoms: _1728  and  _1731
REMARK  521  A    between atoms: _1737  and  _1738
REMARK  522  A    between atoms: _1738  and  _1739
REMARK  523  A    between atoms: _1738  and  _1741
REMARK  524  A    between atoms: _1741  and  _1742
REMARK  525  A    between atoms: _1749  and  _1750
REMARK  526  A    between atoms: _1750  and  _1751
REMARK  527  A    between atoms: _1750  and  _1753
REMARK  528  A    between atoms: _1753  and  _1754
REMARK  529  A    between atoms: _1753  and  _1755
REMARK  530  A    between atoms: _1754  and  _1756
REMARK  531  A    between atoms: _1768  and  _1769
REMARK  532  A    between atoms: _1769  and  _1772
REMARK  533  A    between atoms: _1772  and  _1773
REMARK  534  A    between atoms: _1791  and  _1793
REMARK  535  A    between atoms: _1792  and  _1794
REMARK  536  A    between atoms: _1814  and  _1815
REMARK  537  A    between atoms: _1814  and  _1817
REMARK  538  A    between atoms: _1817  and  _1818
REMARK  539  A    between atoms: _1817  and  _1819
REMARK  540  A    between atoms: _1818  and  _1820
REMARK  541  A    between atoms: _1833  and  _1834
REMARK  542  A    between atoms: _1834  and  _1835
REMARK  543  A    between atoms: _1840  and  _1841
REMARK  544  A    between atoms: _1841  and  _1842
REMARK  545  A    between atoms: _1841  and  _1844
REMARK  546  A    between atoms: _1844  and  _1845
REMARK  547  A    between atoms: _1845  and  _1846
REMARK  548  A    between atoms: _1857  and  _1858
REMARK  549  A    between atoms: _1858  and  _1859
REMARK  550  A    between atoms: _1858  and  _1861
REMARK  551  A    between atoms: _1861  and  _1862
REMARK  552  A    between atoms: _1877  and  _1878
REMARK  553  A    between atoms: _1878  and  _1879
REMARK  554  A    between atoms: _1884  and  _1885
REMARK  555  A    between atoms: _1885  and  _1886
REMARK  556  A    between atoms: _1885  and  _1888
REMARK  557  A    between atoms: _1888  and  _1889
REMARK  558  A    between atoms: _1888  and  _1890
REMARK  559  A    between atoms: _1900  and  _1901
REMARK  560  A    between atoms: _1901  and  _1902
REMARK  561  A    between atoms: _1907  and  _1908
REMARK  562  A    between atoms: _1908  and  _1909
REMARK  563  A    between atoms: _1908  and  _1911
REMARK  564  A    between atoms: _1911  and  _1912
REMARK  565  A    between atoms: _1927  and  _1928
REMARK  566  A    between atoms: _1928  and  _1929
REMARK  567  A    between atoms: _1928  and  _1931
REMARK  568  A    between atoms: _1931  and  _1932
REMARK  569  A    between atoms: _1937  and  _1938
REMARK  570  A    between atoms: _1948  and  _1949
REMARK  571  A    between atoms: _1949  and  _1950
REMARK  572  A    between atoms: _1949  and  _1952
REMARK  573  A    between atoms: _1952  and  _1953
REMARK  574  A    between atoms: _1959  and  _1960
REMARK  575  A    between atoms: _1960  and  _1961
REMARK  576  A    between atoms: _1960  and  _1963
REMARK  577  A    between atoms: _1969  and  _1970
REMARK  578  A    between atoms: _1970  and  _1971
REMARK  579  A    between atoms: _1970  and  _1973
REMARK  580  A    between atoms: _1973  and  _1974
REMARK  581  A    between atoms: _1979  and  _1980
REMARK  582  A    between atoms: _1990  and  _1991
REMARK  583  A    between atoms: _1991  and  _1992
REMARK  584  A    between atoms: _1991  and  _1994
REMARK  585  A    between atoms: _1994  and  _1995
REMARK  586  A    between atoms: _1995  and  _1996
REMARK  587  A    between atoms: _1995  and  _1997
REMARK  588  A    between atoms: _2009  and  _2010
REMARK  589  A    between atoms: _2010  and  _2011
REMARK  590  A    between atoms: _2010  and  _2013
REMARK  591  A    between atoms: _2013  and  _2014
REMARK  592  A    between atoms: _2013  and  _2015
REMARK  593  A    between atoms: _2025  and  _2026
REMARK  594  A    between atoms: _2026  and  _2027
REMARK  595  A    between atoms: _2026  and  _2029
REMARK  596  A    between atoms: _2035  and  _2036
REMARK  597  A    between atoms: _2036  and  _2037
REMARK  598  A    between atoms: _2036  and  _2039
REMARK  599  A    between atoms: _2039  and  _2040
REMARK  600  A    between atoms: _2040  and  _2041
REMARK  601  A    between atoms: _2050  and  _2051
REMARK  602  A    between atoms: _2051  and  _2052
REMARK  603  A    between atoms: _2051  and  _2054
REMARK  604  A    between atoms: _2054  and  _2055
REMARK  605  A    between atoms: _2055  and  _2056
REMARK  606  A    between atoms: _2056  and  _2057
REMARK  607  A    between atoms: _2057  and  _2058
REMARK  608  A    between atoms: _2072  and  _2073
REMARK  609  A    between atoms: _2073  and  _2074
REMARK  610  A    between atoms: _2073  and  _2076
REMARK  611  A    between atoms: _2076  and  _2077
REMARK  612  A    between atoms: _2076  and  _2078
REMARK  613  A    between atoms: _2088  and  _2089
REMARK  614  A    between atoms: _2089  and  _2090
REMARK  615  A    between atoms: _2089  and  _2092
REMARK  616  A    between atoms: _2092  and  _2093
REMARK  617  A    between atoms: _2092  and  _2094
REMARK  618  A    between atoms: _2102  and  _2103
REMARK  619  A    between atoms: _2103  and  _2104
REMARK  620  A    between atoms: _2103  and  _2106
REMARK  621  A    between atoms: _2106  and  _2107
REMARK  622  A    between atoms: _2106  and  _2108
REMARK  623  A    between atoms: _2118  and  _2119
REMARK  624  A    between atoms: _2119  and  _2120
REMARK  625  A    between atoms: _2119  and  _2122
REMARK  626  A    between atoms: _2122  and  _2123
REMARK  627  A    between atoms: _2122  and  _2124
REMARK  628  A    between atoms: _2123  and  _2125
REMARK  629  A    between atoms: _2137  and  _2138
REMARK  630  A    between atoms: _2138  and  _2139
REMARK  631  A    between atoms: _2138  and  _2141
REMARK  632  A    between atoms: _2141  and  _2142
REMARK  633  A    between atoms: _2141  and  _2143
REMARK  634  A    between atoms: _2151  and  _2152
REMARK  635  A    between atoms: _2152  and  _2153
REMARK  636  A    between atoms: _2152  and  _2155
REMARK  637  A    between atoms: _2155  and  _2156
REMARK  638  A    between atoms: _2156  and  _2157
REMARK  639  A    between atoms: _2157  and  _2158
REMARK  640  A    between atoms: _2158  and  _2159
REMARK  641  A    between atoms: _2173  and  _2174
REMARK  642  A    between atoms: _2174  and  _2175
REMARK  643  A    between atoms: _2174  and  _2177
REMARK  644  A    between atoms: _2177  and  _2178
REMARK  645  A    between atoms: _2190  and  _2191
REMARK  646  A    between atoms: _2191  and  _2192
REMARK  647  A    between atoms: _2191  and  _2194
REMARK  648  A    between atoms: _2194  and  _2195
REMARK  649  A    between atoms: _2204  and  _2205
REMARK  650  A    between atoms: _2205  and  _2206
REMARK  651  A    between atoms: _2205  and  _2208
REMARK  652  A    between atoms: _2208  and  _2209
REMARK  653  A    between atoms: _2216  and  _2217
REMARK  654  A    between atoms: _2217  and  _2218
REMARK  655  A    between atoms: _2217  and  _2220
REMARK  656  A    between atoms: _2220  and  _2221
REMARK  657  A    between atoms: _2228  and  _2229
REMARK  658  A    between atoms: _2229  and  _2230
REMARK  659  A    between atoms: _2229  and  _2232
REMARK  660  A    between atoms: _2232  and  _2233
REMARK  661  A    between atoms: _2233  and  _2234
REMARK  662  A    between atoms: _2243  and  _2244
REMARK  663  A    between atoms: _2244  and  _2245
REMARK  664  A    between atoms: _2244  and  _2247
REMARK  665  A    between atoms: _2247  and  _2248
REMARK  666  A    between atoms: _2248  and  _2249
REMARK  667  A    between atoms: _2260  and  _2261
REMARK  668  A    between atoms: _2261  and  _2262
REMARK  669  A    between atoms: _2261  and  _2264
REMARK  670  A    between atoms: _2264  and  _2265
REMARK  671  A    between atoms: _2270  and  _2271
REMARK  672  A    between atoms: _2281  and  _2282
REMARK  673  A    between atoms: _2282  and  _2283
REMARK  674  A    between atoms: _2282  and  _2285
REMARK  675  A    between atoms: _2291  and  _2292
REMARK  676  A    between atoms: _2292  and  _2293
REMARK  677  A    between atoms: _2292  and  _2295
REMARK  678  A    between atoms: _2295  and  _2296
REMARK  679  A    between atoms: _2315  and  _2316
REMARK  680  A    between atoms: _2316  and  _2317
REMARK  681  A    between atoms: _2316  and  _2319
REMARK  682  A    between atoms: _2319  and  _2320
REMARK  683  A    between atoms: _2320  and  _2321
REMARK  684  A    between atoms: _2330  and  _2331
REMARK  685  A    between atoms: _2331  and  _2332
REMARK  686  A    between atoms: _2331  and  _2334
REMARK  687  A    between atoms: _2334  and  _2335
REMARK  688  A    between atoms: _2341  and  _2342
REMARK  689  A    between atoms: _2342  and  _2343
REMARK  690  A    between atoms: _2342  and  _2345
REMARK  691  A    between atoms: _2345  and  _2346
REMARK  692  A    between atoms: _2352  and  _2353
REMARK  693  A    between atoms: _2353  and  _2354
REMARK  694  A    between atoms: _2353  and  _2356
REMARK  695  A    between atoms: _2362  and  _2363
REMARK  696  A    between atoms: _2363  and  _2364
REMARK  697  A    between atoms: _2369  and  _2370
REMARK  698  A    between atoms: _2370  and  _2371
REMARK  699  A    between atoms: _2376  and  _2377
REMARK  700  A    between atoms: _2377  and  _2378
REMARK  701  A    between atoms: _2377  and  _2380
REMARK  702  A    between atoms: _2380  and  _2381
REMARK  703  A    between atoms: _2387  and  _2388
REMARK  704  A    between atoms: _2388  and  _2389
REMARK  705  A    between atoms: _2388  and  _2391
REMARK  706  A    between atoms: _2391  and  _2392
REMARK  707  A    between atoms: _2407  and  _2408
REMARK  708  A    between atoms: _2408  and  _2409
REMARK  709  A    between atoms: _2408  and  _2411
REMARK  710  A    between atoms: _2411  and  _2412
REMARK  711  A    between atoms: _2411  and  _2413
REMARK  712  A    between atoms: _2421  and  _2422
REMARK  713  A    between atoms: _2422  and  _2423
REMARK  714  A    between atoms: _2422  and  _2425
REMARK  715  A    between atoms: _2425  and  _2426
REMARK  716  A    between atoms: _2425  and  _2427
REMARK  717  A    between atoms: _2437  and  _2438
REMARK  718  A    between atoms: _2438  and  _2439
REMARK  719  A    between atoms: _2438  and  _2441
REMARK  720  A    between atoms: _2441  and  _2442
REMARK  721  A    between atoms: _2442  and  _2443
REMARK  722  A    between atoms: _2443  and  _2444
REMARK  723  A    between atoms: _2461  and  _2462
REMARK  724  A    between atoms: _2462  and  _2463
REMARK  725  A    between atoms: _2462  and  _2465
REMARK  726  A    between atoms: _2465  and  _2466
REMARK  727  A    between atoms: _2465  and  _2467
REMARK  728  A    between atoms: _2475  and  _2476
REMARK  729  A    between atoms: _2476  and  _2477
REMARK  730  A    between atoms: _2476  and  _2479
REMARK  731  A    between atoms: _2479  and  _2480
REMARK  732  A    between atoms: _2487  and  _2488
REMARK  733  A    between atoms: _2488  and  _2489
REMARK  734  A    between atoms: _2488  and  _2491
REMARK  735  A    between atoms: _2491  and  _2492
REMARK  736  A    between atoms: _2491  and  _2493
REMARK  737  A    between atoms: _2501  and  _2502
REMARK  738  A    between atoms: _2502  and  _2503
REMARK  739  A    between atoms: _2508  and  _2509
REMARK  740  A    between atoms: _2509  and  _2510
REMARK  741  A    between atoms: _2509  and  _2512
REMARK  742  A    between atoms: _2512  and  _2513
REMARK  743  A    between atoms: _2513  and  _2514
REMARK  744  A    between atoms: _2524  and  _2525
REMARK  745  A    between atoms: _2537  and  _2538
REMARK  746  A    between atoms: _2538  and  _2539
REMARK  747  A    between atoms: _2538  and  _2541
REMARK  748  A    between atoms: _2541  and  _2542
REMARK  749  A    between atoms: _2542  and  _2543
REMARK  750  A    between atoms: _2543  and  _2544
REMARK  751  A    between atoms: _2554  and  _2555
REMARK  752  A    between atoms: _2555  and  _2556
REMARK  753  A    between atoms: _2561  and  _2562
REMARK  754  A    between atoms: _2562  and  _2563
REMARK  755  A    between atoms: _2562  and  _2565
REMARK  756  A    between atoms: _2565  and  _2566
REMARK  757  A    between atoms: _2566  and  _2567
REMARK  758  A    between atoms: _2567  and  _2568
REMARK  759  A    between atoms: _2585  and  _2586
REMARK  760  A    between atoms: _2586  and  _2587
REMARK  761  A    between atoms: _2592  and  _2593
REMARK  762  A    between atoms: _2593  and  _2594
REMARK  763  A    between atoms: _2593  and  _2596
REMARK  764  A    between atoms: _2596  and  _2597
REMARK  765  A    between atoms: _2596  and  _2598
REMARK  766  A    between atoms: _2606  and  _2607
REMARK  767  A    between atoms: _2607  and  _2608
REMARK  768  A    between atoms: _2607  and  _2610
REMARK  769  A    between atoms: _2610  and  _2611
REMARK  770  A    between atoms: _2611  and  _2612
REMARK  771  A    between atoms: _2612  and  _2613
REMARK  772  A    between atoms: _2613  and  _2614
REMARK  773  A    between atoms: _2628  and  _2629
REMARK  774  A    between atoms: _2629  and  _2630
REMARK  775  A    between atoms: _2629  and  _2632
REMARK  776  A    between atoms: _2632  and  _2633
REMARK  777  A    between atoms: _2632  and  _2634
REMARK  778  A    between atoms: _2644  and  _2645
REMARK  779  A    between atoms: _2645  and  _2646
REMARK  780  A    between atoms: _2645  and  _2648
REMARK  781  A    between atoms: _2648  and  _2649
REMARK  782  A    between atoms: _2648  and  _2650
REMARK  783  A    between atoms: _2649  and  _2651
REMARK  784  A    between atoms: _2663  and  _2664
REMARK  785  A    between atoms: _2664  and  _2665
REMARK  786  A    between atoms: _2664  and  _2667
REMARK  787  A    between atoms: _2667  and  _2668
REMARK  788  A    between atoms: _2668  and  _2669
REMARK  789  A    between atoms: _2668  and  _2670
REMARK  790  A    between atoms: _2682  and  _2683
REMARK  791  A    between atoms: _2683  and  _2684
REMARK  792  A    between atoms: _2683  and  _2686
REMARK  793  A    between atoms: _2686  and  _2687
REMARK  794  A    between atoms: _2699  and  _2700
REMARK  795  A    between atoms: _2700  and  _2701
REMARK  796  A    between atoms: _2700  and  _2703
REMARK  797  A    between atoms: _2703  and  _2704
REMARK  798  A    between atoms: _2704  and  _2705
REMARK  799  A    between atoms: _2704  and  _2706
REMARK  800  A    between atoms: _2718  and  _2719
REMARK  801  A    between atoms: _2719  and  _2720
REMARK  802  A    between atoms: _2719  and  _2722
REMARK  803  A    between atoms: _2722  and  _2723
REMARK  804  A    between atoms: _2723  and  _2724
REMARK  805  A    between atoms: _2724  and  _2725
REMARK  806  A    between atoms: _2725  and  _2726
REMARK  807  A    between atoms: _2740  and  _2741
REMARK  808  A    between atoms: _2741  and  _2742
REMARK  809  A    between atoms: _2741  and  _2744
REMARK  810  A    between atoms: _2744  and  _2745
REMARK  811  A    between atoms: _2745  and  _2746
REMARK  812  A    between atoms: _2755  and  _2756
REMARK  813  A    between atoms: _2756  and  _2757
REMARK  814  A    between atoms: _2756  and  _2759
REMARK  815  A    between atoms: _2759  and  _2760
REMARK  816  A    between atoms: _2767  and  _2768
REMARK  817  A    between atoms: _2768  and  _2769
REMARK  818  A    between atoms: _2768  and  _2771
REMARK  819  A    between atoms: _2771  and  _2772
REMARK  820  A    between atoms: _2772  and  _2773
REMARK  821  A    between atoms: _2784  and  _2785
REMARK  822  A    between atoms: _2785  and  _2786
REMARK  823  A    between atoms: _2785  and  _2788
REMARK  824  A    between atoms: _2788  and  _2789
REMARK  825  A    between atoms: _2788  and  _2790
REMARK  826  A    between atoms: _2798  and  _2799
REMARK  827  A    between atoms: _2799  and  _2800
REMARK  828  A    between atoms: _2799  and  _2802
REMARK  829  A    between atoms: _2802  and  _2803
REMARK  830  A    between atoms: _2803  and  _2804
REMARK  831  A    between atoms: _2813  and  _2814
REMARK  832  A    between atoms: _2814  and  _2815
REMARK  833  A    between atoms: _2814  and  _2817
REMARK  834  A    between atoms: _2817  and  _2818
REMARK  835  A    between atoms: _2823  and  _2824
REMARK  836  A    between atoms: _2834  and  _2835
REMARK  837  A    between atoms: _2835  and  _2838
REMARK  838  A    between atoms: _2838  and  _2839
REMARK  839  A    between atoms: _2839  and  _2840
REMARK  840  A    between atoms: _2839  and  _2841
REMARK  841  A    between atoms: _2884  and  _2885
REMARK  842  A    between atoms: _2884  and  _2887
REMARK  843  A    between atoms: _2887  and  _2888
REMARK  844  A    between atoms: _2888  and  _2889
REMARK  845  A    between atoms: _2899  and  _2900
REMARK  846  A    between atoms: _2900  and  _2901
REMARK  847  A    between atoms: _2900  and  _2903
REMARK  848  A    between atoms: _2903  and  _2904
REMARK  849  A    between atoms: _2904  and  _2905
REMARK  850  A    between atoms: _2905  and  _2906
REMARK  851  A    between atoms: _2923  and  _2924
REMARK  852  A    between atoms: _2924  and  _2925
REMARK  853  A    between atoms: _2924  and  _2927
REMARK  854  A    between atoms: _2927  and  _2928
REMARK  855  A    between atoms: _2928  and  _2929
REMARK  856  A    between atoms: _2929  and  _2930
REMARK  857  A    between atoms: _2947  and  _2948
REMARK  858  A    between atoms: _2948  and  _2949
REMARK  859  A    between atoms: _2948  and  _2951
REMARK  860  A    between atoms: _2951  and  _2952
REMARK  861  A    between atoms: _2951  and  _2953
REMARK  862  A    between atoms: _2952  and  _2954
REMARK  863  A    between atoms: _2966  and  _2967
REMARK  864  A    between atoms: _2967  and  _2968
REMARK  865  A    between atoms: _2967  and  _2970
REMARK  866  A    between atoms: _2970  and  _2971
REMARK  867  A    between atoms: _2971  and  _2972
REMARK  868  A    between atoms: _2972  and  _2973
REMARK  869  A    between atoms: _2973  and  _2974
REMARK  870  A    between atoms: _2988  and  _2989
REMARK  871  A    between atoms: _2989  and  _2990
REMARK  872  A    between atoms: _2989  and  _2992
REMARK  873  A    between atoms: _2992  and  _2993
REMARK  874  A    between atoms: _2993  and  _2994
REMARK  875  A    between atoms: _3003  and  _3004
REMARK  876  A    between atoms: _3004  and  _3005
REMARK  877  A    between atoms: _3004  and  _3007
REMARK  878  A    between atoms: _3007  and  _3008
REMARK  879  A    between atoms: _3007  and  _3009
REMARK  880  A    between atoms: _3008  and  _3010
REMARK  881  A    between atoms: _3022  and  _3023
REMARK  882  A    between atoms: _3023  and  _3024
REMARK  883  A    between atoms: _3023  and  _3026
REMARK  884  A    between atoms: _3026  and  _3027
REMARK  885  A    between atoms: _3026  and  _3028
REMARK  886  A    between atoms: _3038  and  _3039
REMARK  887  A    between atoms: _3039  and  _3040
REMARK  888  A    between atoms: _3039  and  _3042
REMARK  889  A    between atoms: _3042  and  _3043
REMARK  890  A    between atoms: _3043  and  _3044
REMARK  891  A    between atoms: _3044  and  _3045
REMARK  892  A    between atoms: _3045  and  _3046
REMARK  893  A    between atoms: _3060  and  _3061
REMARK  894  A    between atoms: _3061  and  _3062
REMARK  895  A    between atoms: _3061  and  _3064
REMARK  896  A    between atoms: _3064  and  _3065
REMARK  897  A    between atoms: _3065  and  _3066
REMARK  898  A    between atoms: _3066  and  _3067
REMARK  899  A    between atoms: _3067  and  _3068
REMARK  900  A    between atoms: _3082  and  _3083
REMARK  901  A    between atoms: _3083  and  _3084
REMARK  902  A    between atoms: _3083  and  _3086
REMARK  903  A    between atoms: _3086  and  _3087
REMARK  904  A    between atoms: _3099  and  _3100
REMARK  905  A    between atoms: _3100  and  _3101
REMARK  906  A    between atoms: _3100  and  _3103
REMARK  907  A    between atoms: _3103  and  _3104
REMARK  908  A    between atoms: _3110  and  _3111
REMARK  909  A    between atoms: _3111  and  _3112
REMARK  910  A    between atoms: _3111  and  _3114
REMARK  911  A    between atoms: _3114  and  _3115
REMARK  912  A    between atoms: _3115  and  _3116
REMARK  913  A    between atoms: _3127  and  _3128
REMARK  914  A    between atoms: _3128  and  _3129
REMARK  915  A    between atoms: _3128  and  _3131
REMARK  916  A    between atoms: _3131  and  _3132
REMARK  917  A    between atoms: _3147  and  _3148
REMARK  918  A    between atoms: _3148  and  _3149
REMARK  919  A    between atoms: _3148  and  _3151
REMARK  920  A    between atoms: _3151  and  _3152
REMARK  921  A    between atoms: _3151  and  _3153
REMARK  922  A    between atoms: _3152  and  _3154
REMARK  923  A    between atoms: _3166  and  _3167
REMARK  924  A    between atoms: _3167  and  _3168
REMARK  925  A    between atoms: _3173  and  _3174
REMARK  926  A    between atoms: _3174  and  _3175
REMARK  927  A    between atoms: _3174  and  _3177
REMARK  928  A    between atoms: _3177  and  _3178
REMARK  929  A    between atoms: _3183  and  _3184
REMARK  930  A    between atoms: _3195  and  _3196
REMARK  931  A    between atoms: _3208  and  _3209
REMARK  932  A    between atoms: _3209  and  _3210
REMARK  933  A    between atoms: _3209  and  _3212
REMARK  934  A    between atoms: _3212  and  _3213
REMARK  935  A    between atoms: _3212  and  _3214
REMARK  936  A    between atoms: _3213  and  _3215
REMARK  937  A    between atoms: _3227  and  _3228
REMARK  938  A    between atoms: _3228  and  _3229
REMARK  939  A    between atoms: _3228  and  _3231
REMARK  940  A    between atoms: _3231  and  _3232
REMARK  941  A    between atoms: _3231  and  _3233
REMARK  942  A    between atoms: _3241  and  _3242
REMARK  943  A    between atoms: _3242  and  _3243
REMARK  944  A    between atoms: _3242  and  _3245
REMARK  945  A    between atoms: _3245  and  _3246
REMARK  946  A    between atoms: _3246  and  _3247
REMARK  947  A    between atoms: _3246  and  _3248
REMARK  948  A    between atoms: _3260  and  _3261
REMARK  949  A    between atoms: _3261  and  _3262
REMARK  950  A    between atoms: _3261  and  _3264
REMARK  951  A    between atoms: _3264  and  _3265
REMARK  952  A    between atoms: _3280  and  _3281
REMARK  953  A    between atoms: _3281  and  _3282
REMARK  954  A    between atoms: _3281  and  _3284
REMARK  955  A    between atoms: _3284  and  _3285
REMARK  956  A    between atoms: _3284  and  _3286
REMARK  957  A    between atoms: _3296  and  _3297
REMARK  958  A    between atoms: _3297  and  _3298
REMARK  959  A    between atoms: _3297  and  _3300
REMARK  960  A    between atoms: _3300  and  _3301
REMARK  961  A    between atoms: _3301  and  _3302
REMARK                            x       y       z     vdW  Elec       q    Type
REMARK                         _______ _______ _______ _____ _____    ______ ____
ROOT
ATOM      1  CA  ARG A  45     -10.157  42.032  18.758  0.00  0.00    +0.159 C 
ENDROOT
BRANCH   1   2
ATOM      2  C   ARG A  45      -9.777  43.427  18.165  0.00  0.00    +0.234 C 
ATOM      3  N   TYR A  46      -8.650  43.976  18.572  0.00  0.00    -0.302 N 
ATOM      4  H   TYR A  46      -8.070  43.564  19.295  0.00  0.00    +0.150 HD
ATOM      5  O   ARG A  45     -10.461  43.929  17.280  0.00  0.00    -0.274 OA
BRANCH   3   6
ATOM      6  CA  TYR A  46      -8.144  45.252  18.069  0.00  0.00    +0.163 C 
BRANCH   6   7
ATOM      7  C   TYR A  46      -7.914  45.255  16.541  0.00  0.00    +0.234 C 
ATOM      8  N   GLU A  47      -7.218  44.229  16.028  0.00  0.00    -0.302 N 
ATOM      9  H   GLU A  47      -6.843  43.471  16.587  0.00  0.00    +0.150 HD
ATOM     10  O   TYR A  46      -8.384  46.165  15.840  0.00  0.00    -0.274 OA
BRANCH   8  11
ATOM     11  CA  GLU A  47      -6.952  44.112  14.598  0.00  0.00    +0.159 C 
BRANCH  11  12
ATOM     12  C   GLU A  47      -8.270  43.986  13.801  0.00  0.00    +0.234 C 
ATOM     13  N   SER A  48      -9.274  43.293  14.369  0.00  0.00    -0.300 N 
ATOM     14  H   SER A  48      -9.190  42.843  15.275  0.00  0.00    +0.150 HD
ATOM     15  O   GLU A  47      -8.355  44.544  12.715  0.00  0.00    -0.274 OA
BRANCH  13  16
ATOM     16  CA  SER A  48     -10.589  43.110  13.748  0.00  0.00    +0.200 C 
BRANCH  16  17
ATOM     17  C   SER A  48     -11.358  44.450  13.585  0.00  0.00    +0.237 C 
ATOM     18  N   LEU A  49     -11.021  45.488  14.366  0.00  0.00    -0.302 N 
ATOM     19  H   LEU A  49     -10.292  45.472  15.070  0.00  0.00    +0.150 HD
ATOM     20  O   SER A  48     -12.222  44.532  12.715  0.00  0.00    -0.274 OA
BRANCH  18  21
ATOM     21  CA  LEU A  49     -11.688  46.804  14.242  0.00  0.00    +0.159 C 
BRANCH  21  22
ATOM     22  C   LEU A  49     -11.367  47.494  12.909  0.00  0.00    +0.234 C 
ATOM     23  O   LEU A  49     -12.220  48.210  12.395  0.00  0.00    -0.274 OA
ATOM     24  N   THR A  50     -10.167  47.285  12.354  0.00  0.00    -0.300 N 
ATOM     25  H   THR A  50      -9.421  46.752  12.790  0.00  0.00    +0.150 HD
BRANCH  24  26
ATOM     26  CA  THR A  50      -9.784  47.846  11.053  0.00  0.00    +0.187 C 
BRANCH  26  27
ATOM     27  C   THR A  50      -9.876  46.818   9.914  0.00  0.00    +0.236 C 
ATOM     28  N   ASP A  51     -10.007  45.499  10.233  0.00  0.00    -0.302 N 
ATOM     29  H   ASP A  51     -10.009  45.137  11.180  0.00  0.00    +0.150 HD
ATOM     30  O   THR A  50      -9.799  47.218   8.754  0.00  0.00    -0.274 OA
BRANCH  28  31
ATOM     31  CA  ASP A  51     -10.144  44.435   9.245  0.00  0.00    +0.170 C 
BRANCH  31  32
ATOM     32  C   ASP A  51     -11.047  43.348   9.817  0.00  0.00    +0.237 C 
ATOM     33  O   ASP A  51     -10.553  42.364  10.364  0.00  0.00    -0.274 OA
ATOM     34  N   PRO A  52     -12.377  43.476   9.645  0.00  0.00    -0.288 N 
ATOM     35  CA  PRO A  52     -13.302  42.452  10.165  0.00  0.00    +0.162 C 
ATOM     36  CB  PRO A  52     -14.676  42.985   9.737  0.00  0.00    +0.033 C 
ATOM     37  CG  PRO A  52     -14.494  44.441   9.634  0.00  0.00    +0.021 C 
ATOM     38  CD  PRO A  52     -13.126  44.599   9.043  0.00  0.00    +0.109 C 
BRANCH  35  39
ATOM     39  C   PRO A  52     -13.082  41.007   9.679  0.00  0.00    +0.234 C 
ATOM     40  O   PRO A  52     -13.432  40.057  10.396  0.00  0.00    -0.274 OA
ATOM     41  N   SER A  53     -12.440  40.831   8.511  0.00  0.00    -0.301 N 
ATOM     42  H   SER A  53     -12.110  41.583   7.915  0.00  0.00    +0.150 HD
BRANCH  41  43
ATOM     43  CA  SER A  53     -12.149  39.500   7.978  0.00  0.00    +0.184 C 
BRANCH  43  44
ATOM     44  C   SER A  53     -11.129  38.717   8.855  0.00  0.00    +0.236 C 
ATOM     45  N   LYS A  54     -10.443  39.400   9.815  0.00  0.00    -0.302 N 
ATOM     46  H   LYS A  54     -10.481  40.408   9.926  0.00  0.00    +0.150 HD
ATOM     47  O   SER A  53     -10.996  37.508   8.673  0.00  0.00    -0.274 OA
BRANCH  45  48
ATOM     48  CA  LYS A  54      -9.535  38.757  10.786  0.00  0.00    +0.159 C 
BRANCH  48  49
ATOM     49  C   LYS A  54     -10.297  37.726  11.656  0.00  0.00    +0.234 C 
ATOM     50  O   LYS A  54      -9.691  36.782  12.153  0.00  0.00    -0.274 OA
ATOM     51  N   LEU A  55     -11.615  37.928  11.857  0.00  0.00    -0.302 N 
ATOM     52  H   LEU A  55     -12.102  38.771  11.571  0.00  0.00    +0.150 HD
BRANCH  51  53
ATOM     53  CA  LEU A  55     -12.482  37.013  12.582  0.00  0.00    +0.159 C 
BRANCH  53  54
ATOM     54  C   LEU A  55     -13.147  35.931  11.694  0.00  0.00    +0.234 C 
ATOM     55  O   LEU A  55     -13.962  35.168  12.216  0.00  0.00    -0.274 OA
ATOM     56  N   ASP A  56     -12.771  35.806  10.396  0.00  0.00    -0.302 N 
ATOM     57  H   ASP A  56     -12.131  36.426   9.912  0.00  0.00    +0.150 HD
BRANCH  56  58
ATOM     58  CA  ASP A  56     -13.298  34.717   9.528  0.00  0.00    +0.170 C 
BRANCH  58  59
ATOM     59  C   ASP A  56     -12.920  33.337  10.079  0.00  0.00    +0.235 C 
ATOM     60  N   UNK A  57     -11.764  33.248  10.779  0.00  0.00    -0.301 N 
ATOM     61  H   UNK A  57     -11.108  34.017  10.873  0.00  0.00    +0.150 HD
ATOM     62  O   ASP A  56     -13.693  32.394   9.951  0.00  0.00    -0.274 OA
BRANCH  60  63
ATOM     63  C   UNK A  57     -11.296  32.025  11.450  0.00  0.00    +0.184 C 
BRANCH  63  64
ATOM     64  C   UNK A  57     -11.949  31.784  12.843  0.00  0.00    +0.236 C 
ATOM     65  O   UNK A  57     -11.500  30.898  13.572  0.00  0.00    -0.274 OA
ATOM     66  N   UNK A  57     -12.968  32.563  13.211  0.00  0.00    -0.305 N 
ATOM     67  H   UNK A  57     -13.340  33.339  12.677  0.00  0.00    +0.149 HD
BRANCH  66  68
ATOM     68  C   UNK A  57     -13.672  32.391  14.472  0.00  0.00    +0.200 C 
BRANCH  68  69
ATOM     69  C   UNK A  57     -14.016  33.715  15.120  0.00  0.00    +0.231 C 
ATOM     70  N   UNK A  57     -15.304  33.927  15.399  0.00  0.00    -0.303 N 
ATOM     71  H   UNK A  57     -16.033  33.236  15.256  0.00  0.00    +0.149 HD
ATOM     72  O   UNK A  57     -13.132  34.548  15.354  0.00  0.00    -0.274 OA
BRANCH  70  73
ATOM     73  C   UNK A  57     -15.771  35.172  16.001  0.00  0.00    +0.159 C 
BRANCH  73  74
ATOM     74  C   UNK A  57     -15.731  35.153  17.529  0.00  0.00    +0.234 C 
ATOM     75  O   UNK A  57     -15.598  36.202  18.144  0.00  0.00    -0.274 OA
ATOM     76  N   UNK A  57     -15.862  33.976  18.142  0.00  0.00    -0.302 N 
ATOM     77  H   UNK A  57     -15.848  33.081  17.665  0.00  0.00    +0.150 HD
BRANCH  76  78
ATOM     78  C   UNK A  57     -15.950  33.869  19.596  0.00  0.00    +0.159 C 
BRANCH  78  79
ATOM     79  C   UNK A  57     -14.580  34.143  20.235  0.00  0.00    +0.234 C 
ATOM     80  N   UNK A  57     -14.548  35.011  21.232  0.00  0.00    -0.302 N 
ATOM     81  H   UNK A  57     -15.377  35.459  21.609  0.00  0.00    +0.150 HD
ATOM     82  O   UNK A  57     -13.586  33.604  19.786  0.00  0.00    -0.274 OA
BRANCH  80  83
ATOM     83  C   UNK A  57     -13.328  35.422  21.942  0.00  0.00    +0.159 C 
BRANCH  83  84
ATOM     84  C   UNK A  57     -13.474  34.977  23.385  0.00  0.00    +0.234 C 
ATOM     85  O   UNK A  57     -14.192  35.591  24.173  0.00  0.00    -0.274 OA
ATOM     86  N   UNK A  57     -12.813  33.878  23.743  0.00  0.00    -0.302 N 
ATOM     87  H   UNK A  57     -12.143  33.391  23.158  0.00  0.00    +0.150 HD
BRANCH  86  88
ATOM     88  C   UNK A  57     -12.982  33.316  25.075  0.00  0.00    +0.165 C 
BRANCH  88  89
ATOM     89  C   UNK A  57     -11.762  32.527  25.500  0.00  0.00    +0.234 C 
ATOM     90  N   UNK A  57     -11.760  32.136  26.764  0.00  0.00    -0.302 N 
ATOM     91  H   UNK A  57     -12.460  32.442  27.433  0.00  0.00    +0.150 HD
ATOM     92  O   UNK A  57     -10.840  32.333  24.725  0.00  0.00    -0.274 OA
BRANCH  90  93
ATOM     93  C   UNK A  57     -10.737  31.288  27.382  0.00  0.00    +0.162 C 
BRANCH  93  94
ATOM     94  C   UNK A  57     -11.458  30.083  27.975  0.00  0.00    +0.234 C 
ATOM     95  O   UNK A  57     -12.432  30.268  28.706  0.00  0.00    -0.274 OA
ATOM     96  N   UNK A  57     -10.939  28.867  27.740  0.00  0.00    -0.302 N 
ATOM     97  H   UNK A  57     -10.168  28.691  27.105  0.00  0.00    +0.150 HD
BRANCH  96  98
ATOM     98  C   UNK A  57     -11.475  27.651  28.372  0.00  0.00    +0.168 C 
BRANCH  98  99
ATOM     99  C   UNK A  57     -10.379  26.982  29.194  0.00  0.00    +0.234 C 
ATOM    100  N   UNK A  57     -10.736  26.499  30.387  0.00  0.00    -0.302 N 
ATOM    101  H   UNK A  57     -11.665  26.618  30.776  0.00  0.00    +0.150 HD
ATOM    102  O   UNK A  57      -9.229  26.938  28.755  0.00  0.00    -0.274 OA
BRANCH 100 103
ATOM    103  C   UNK A  57      -9.850  25.767  31.296  0.00  0.00    +0.159 C 
BRANCH 103 104
ATOM    104  C   UNK A  57     -10.376  24.326  31.333  0.00  0.00    +0.234 C 
ATOM    105  O   UNK A  57     -11.534  24.120  31.672  0.00  0.00    -0.274 OA
ATOM    106  N   UNK A  57      -9.527  23.369  30.979  0.00  0.00    -0.302 N 
ATOM    107  H   UNK A  57      -8.544  23.531  30.784  0.00  0.00    +0.150 HD
BRANCH 106 108
ATOM    108  C   UNK A  57      -9.892  21.971  30.834  0.00  0.00    +0.162 C 
BRANCH 108 109
ATOM    109  C   UNK A  57      -8.960  21.041  31.646  0.00  0.00    +0.237 C 
ATOM    110  N   UNK A  57      -9.311  20.742  32.913  0.00  0.00    -0.288 N 
ATOM    111  C   UNK A  57     -10.428  21.276  33.719  0.00  0.00    +0.109 C 
ATOM    112  C   UNK A  57     -10.384  20.462  34.974  0.00  0.00    +0.021 C 
ATOM    113  C   UNK A  57      -8.985  19.952  35.104  0.00  0.00    +0.033 C 
ATOM    114  C   UNK A  57      -8.522  19.753  33.673  0.00  0.00    +0.162 C 
ATOM    115  O   UNK A  57      -7.936  20.605  31.131  0.00  0.00    -0.274 OA
BRANCH 114 116
ATOM    116  C   UNK A  57      -8.857  18.339  33.172  0.00  0.00    +0.234 C 
ATOM    117  N   UNK A  57      -7.873  17.446  33.223  0.00  0.00    -0.302 N 
ATOM    118  H   UNK A  57      -6.922  17.667  33.498  0.00  0.00    +0.150 HD
ATOM    119  O   UNK A  57      -9.998  18.065  32.778  0.00  0.00    -0.274 OA
BRANCH 117 120
ATOM    120  C   UNK A  57      -8.053  16.048  32.826  0.00  0.00    +0.168 C 
BRANCH 120 121
ATOM    121  C   UNK A  57      -7.289  15.171  33.802  0.00  0.00    +0.234 C 
ATOM    122  N   UNK A  57      -7.995  14.664  34.834  0.00  0.00    -0.302 N 
ATOM    123  H   UNK A  57      -8.980  14.845  34.987  0.00  0.00    +0.150 HD
ATOM    124  O   UNK A  57      -6.091  14.984  33.646  0.00  0.00    -0.274 OA
BRANCH 122 125
ATOM    125  C   UNK A  57      -7.396  13.817  35.869  0.00  0.00    +0.159 C 
BRANCH 125 126
ATOM    126  C   UNK A  57      -6.776  12.536  35.307  0.00  0.00    +0.234 C 
ATOM    127  O   UNK A  57      -5.729  12.139  35.787  0.00  0.00    -0.274 OA
ATOM    128  N   UNK A  57      -7.360  11.940  34.259  0.00  0.00    -0.302 N 
ATOM    129  H   UNK A  57      -8.195  12.293  33.802  0.00  0.00    +0.150 HD
BRANCH 128 130
ATOM    130  C   UNK A  57      -6.830  10.685  33.680  0.00  0.00    +0.159 C 
BRANCH 130 131
ATOM    131  C   UNK A  57      -5.477  10.854  33.011  0.00  0.00    +0.234 C 
ATOM    132  O   UNK A  57      -4.591  10.022  33.211  0.00  0.00    -0.274 OA
ATOM    133  N   UNK A  57      -5.314  11.925  32.215  0.00  0.00    -0.302 N 
ATOM    134  H   UNK A  57      -6.045  12.604  32.027  0.00  0.00    +0.150 HD
BRANCH 133 135
ATOM    135  C   UNK A  57      -4.052  12.213  31.535  0.00  0.00    +0.170 C 
BRANCH 135 136
ATOM    136  C   UNK A  57      -3.130  13.060  32.422  0.00  0.00    +0.234 C 
ATOM    137  N   UNK A  57      -3.645  13.594  33.555  0.00  0.00    -0.302 N 
ATOM    138  H   UNK A  57      -4.593  13.445  33.883  0.00  0.00    +0.150 HD
ATOM    139  O   UNK A  57      -1.970  13.237  32.067  0.00  0.00    -0.274 OA
BRANCH 137 140
ATOM    140  C   UNK A  57      -2.925  14.486  34.451  0.00  0.00    +0.159 C 
BRANCH 140 141
ATOM    141  C   UNK A  57      -2.471  15.743  33.693  0.00  0.00    +0.234 C 
ATOM    142  O   UNK A  57      -1.307  16.156  33.760  0.00  0.00    -0.274 OA
ATOM    143  N   UNK A  57      -3.405  16.334  32.958  0.00  0.00    -0.300 N 
ATOM    144  H   UNK A  57      -4.360  16.004  32.866  0.00  0.00    +0.150 HD
BRANCH 143 145
ATOM    145  C   UNK A  57      -3.136  17.563  32.219  0.00  0.00    +0.187 C 
BRANCH 145 146
ATOM    146  C   UNK A  57      -4.142  18.651  32.551  0.00  0.00    +0.236 C 
ATOM    147  O   UNK A  57      -5.329  18.377  32.800  0.00  0.00    -0.274 OA
ATOM    148  N   UNK A  57      -3.670  19.886  32.482  0.00  0.00    -0.302 N 
ATOM    149  H   UNK A  57      -2.690  20.109  32.337  0.00  0.00    +0.150 HD
BRANCH 148 150
ATOM    150  C   UNK A  57      -4.502  21.076  32.604  0.00  0.00    +0.159 C 
BRANCH 150 151
ATOM    151  C   UNK A  57      -4.264  21.863  31.312  0.00  0.00    +0.234 C 
ATOM    152  O   UNK A  57      -3.130  22.283  31.031  0.00  0.00    -0.274 OA
ATOM    153  N   UNK A  57      -5.326  22.024  30.528  0.00  0.00    -0.300 N 
ATOM    154  H   UNK A  57      -6.260  21.719  30.782  0.00  0.00    +0.150 HD
BRANCH 153 155
ATOM    155  C   UNK A  57      -5.299  22.711  29.247  0.00  0.00    +0.187 C 
BRANCH 155 156
ATOM    156  C   UNK A  57      -5.988  24.082  29.351  0.00  0.00    +0.236 C 
ATOM    157  O   UNK A  57      -7.105  24.167  29.850  0.00  0.00    -0.274 OA
ATOM    158  N   UNK A  57      -5.316  25.126  28.862  0.00  0.00    -0.302 N 
ATOM    159  H   UNK A  57      -4.387  25.047  28.460  0.00  0.00    +0.150 HD
BRANCH 158 160
ATOM    160  C   UNK A  57      -5.799  26.503  28.814  0.00  0.00    +0.162 C 
BRANCH 160 161
ATOM    161  C   UNK A  57      -5.927  26.822  27.314  0.00  0.00    +0.234 C 
ATOM    162  N   UNK A  57      -7.162  27.028  26.842  0.00  0.00    -0.302 N 
ATOM    163  H   UNK A  57      -8.001  27.030  27.413  0.00  0.00    +0.150 HD
ATOM    164  O   UNK A  57      -4.915  26.883  26.603  0.00  0.00    -0.274 OA
BRANCH 162 165
ATOM    165  C   UNK A  57      -7.421  27.294  25.442  0.00  0.00    +0.161 C 
BRANCH 165 166
ATOM    166  C   UNK A  57      -7.892  28.734  25.297  0.00  0.00    +0.234 C 
ATOM    167  O   UNK A  57      -8.778  29.149  26.036  0.00  0.00    -0.274 OA
ATOM    168  N   UNK A  57      -7.430  29.430  24.266  0.00  0.00    -0.302 N 
ATOM    169  H   UNK A  57      -6.681  29.127  23.652  0.00  0.00    +0.150 HD
BRANCH 168 170
ATOM    170  C   UNK A  57      -7.965  30.737  23.933  0.00  0.00    +0.170 C 
BRANCH 170 171
ATOM    171  C   UNK A  57      -8.140  30.835  22.405  0.00  0.00    +0.235 C 
ATOM    172  N   UNK A  57      -9.018  31.747  21.976  0.00  0.00    -0.300 N 
ATOM    173  H   UNK A  57      -9.604  32.288  22.604  0.00  0.00    +0.150 HD
ATOM    174  O   UNK A  57      -7.432  30.157  21.642  0.00  0.00    -0.274 OA
BRANCH 172 175
ATOM    175  C   UNK A  57      -9.261  32.054  20.584  0.00  0.00    +0.187 C 
BRANCH 175 176
ATOM    176  C   UNK A  57      -8.674  33.444  20.257  0.00  0.00    +0.236 C 
ATOM    177  N   UNK A  57      -7.508  33.747  20.833  0.00  0.00    -0.305 N 
ATOM    178  H   UNK A  57      -7.014  33.169  21.504  0.00  0.00    +0.149 HD
ATOM    179  O   UNK A  57      -9.251  34.206  19.467  0.00  0.00    -0.274 OA
BRANCH 177 180
ATOM    180  C   UNK A  57      -6.779  34.976  20.538  0.00  0.00    +0.200 C 
BRANCH 180 181
ATOM    181  C   UNK A  57      -6.108  34.919  19.166  0.00  0.00    +0.231 C 
ATOM    182  N   UNK A  57      -5.175  35.850  18.951  0.00  0.00    -0.302 N 
ATOM    183  H   UNK A  57      -4.885  36.483  19.689  0.00  0.00    +0.150 HD
ATOM    184  O   UNK A  57      -6.400  34.049  18.324  0.00  0.00    -0.274 OA
BRANCH 182 185
ATOM    185  C   UNK A  57      -4.494  36.060  17.691  0.00  0.00    +0.162 C 
BRANCH 185 186
ATOM    186  C   UNK A  57      -3.587  34.875  17.284  0.00  0.00    +0.234 C 
ATOM    187  N   UNK A  57      -3.147  34.041  18.241  0.00  0.00    -0.305 N 
ATOM    188  H   UNK A  57      -3.377  34.106  19.227  0.00  0.00    +0.149 HD
ATOM    189  O   UNK A  57      -3.296  34.756  16.103  0.00  0.00    -0.274 OA
BRANCH 187 190
ATOM    190  C   UNK A  57      -2.247  32.917  17.956  0.00  0.00    +0.200 C 
BRANCH 190 191
ATOM    191  C   UNK A  57      -0.828  33.380  17.683  0.00  0.00    +0.231 C 
ATOM    192  O   UNK A  57      -0.511  34.557  17.824  0.00  0.00    -0.274 OA
ATOM    193  N   UNK A  57       0.051  32.456  17.324  0.00  0.00    -0.303 N 
ATOM    194  H   UNK A  57      -0.173  31.471  17.228  0.00  0.00    +0.149 HD
BRANCH 193 195
ATOM    195  C   UNK A  57       1.443  32.768  17.080  0.00  0.00    +0.160 C 
BRANCH 195 196
ATOM    196  C   UNK A  57       1.916  32.116  15.790  0.00  0.00    +0.234 C 
ATOM    197  O   UNK A  57       1.524  30.990  15.455  0.00  0.00    -0.274 OA
ATOM    198  N   UNK A  57       2.796  32.818  15.102  0.00  0.00    -0.300 N 
ATOM    199  H   UNK A  57       3.141  33.727  15.392  0.00  0.00    +0.150 HD
BRANCH 198 200
ATOM    200  C   UNK A  57       3.407  32.331  13.854  0.00  0.00    +0.187 C 
BRANCH 200 201
ATOM    201  C   UNK A  57       4.619  31.430  14.223  0.00  0.00    +0.236 C 
ATOM    202  O   UNK A  57       5.027  31.369  15.388  0.00  0.00    -0.274 OA
ATOM    203  N   UNK A  57       5.241  30.808  13.218  0.00  0.00    -0.302 N 
ATOM    204  H   UNK A  57       4.943  30.862  12.249  0.00  0.00    +0.150 HD
BRANCH 203 205
ATOM    205  C   UNK A  57       6.434  29.997  13.461  0.00  0.00    +0.159 C 
BRANCH 205 206
ATOM    206  C   UNK A  57       7.564  30.869  14.019  0.00  0.00    +0.234 C 
ATOM    207  O   UNK A  57       8.205  30.477  14.997  0.00  0.00    -0.274 OA
ATOM    208  N   UNK A  57       7.783  32.060  13.416  0.00  0.00    -0.303 N 
ATOM    209  H   UNK A  57       7.263  32.385  12.607  0.00  0.00    +0.149 HD
BRANCH 208 210
ATOM    210  C   UNK A  57       8.811  33.003  13.861  0.00  0.00    +0.156 C 
ATOM    211  C   UNK A  57       8.884  34.197  12.942  0.00  0.00    +0.038 C 
BRANCH 210 212
ATOM    212  C   UNK A  57       8.596  33.441  15.317  0.00  0.00    +0.234 C 
ATOM    213  O   UNK A  57       9.574  33.592  16.053  0.00  0.00    -0.274 OA
ATOM    214  N   UNK A  57       7.320  33.607  15.749  0.00  0.00    -0.302 N 
ATOM    215  H   UNK A  57       6.504  33.537  15.149  0.00  0.00    +0.150 HD
BRANCH 214 216
ATOM    216  C   UNK A  57       7.008  33.931  17.155  0.00  0.00    +0.170 C 
BRANCH 216 217
ATOM    217  C   UNK A  57       7.529  32.830  18.075  0.00  0.00    +0.234 C 
ATOM    218  O   UNK A  57       8.243  33.113  19.043  0.00  0.00    -0.274 OA
ATOM    219  N   UNK A  57       7.179  31.589  17.757  0.00  0.00    -0.302 N 
ATOM    220  H   UNK A  57       6.610  31.371  16.945  0.00  0.00    +0.150 HD
BRANCH 219 221
ATOM    221  C   UNK A  57       7.565  30.411  18.516  0.00  0.00    +0.159 C 
BRANCH 221 222
ATOM    222  C   UNK A  57       9.057  30.185  18.605  0.00  0.00    +0.234 C 
ATOM    223  O   UNK A  57       9.545  29.822  19.684  0.00  0.00    -0.274 OA
ATOM    224  N   UNK A  57       9.776  30.377  17.499  0.00  0.00    -0.309 N 
ATOM    225  H   UNK A  57       9.410  30.740  16.625  0.00  0.00    +0.149 HD
BRANCH 224 226
ATOM    226  C   UNK A  57      11.209  30.069  17.449  0.00  0.00    +0.096 C 
BRANCH 226 227
ATOM    227  C   UNK A  57      11.639  29.671  16.011  0.00  0.00    +0.008 C 
ATOM    228  C   UNK A  57      13.199  29.558  15.916  0.00  0.00    +0.009 C 
BRANCH 227 229
ATOM    229  C   UNK A  57      10.912  28.357  15.601  0.00  0.00    +0.002 C 
ATOM    230  C   UNK A  57      11.026  27.998  14.197  0.00  0.00    +0.004 C 
ENDBRANCH 227 229
ENDBRANCH 226 227
ENDBRANCH 224 226
ENDBRANCH 221 222
BRANCH 221 231
ATOM    231  C   UNK A  57       6.905  29.148  17.944  0.00  0.00    +0.034 C 
BRANCH 231 232
ATOM    232  C   UNK A  57       5.389  29.028  18.057  0.00  0.00    -0.015 C 
ATOM    233  C   UNK A  57       4.930  28.926  19.539  0.00  0.00    +0.007 C 
ATOM    234  C   UNK A  57       4.937  27.785  17.275  0.00  0.00    +0.007 C 
ENDBRANCH 231 232
ENDBRANCH 221 231
ENDBRANCH 219 221
ENDBRANCH 216 217
BRANCH 216 235
ATOM    235  C   UNK A  57       5.498  34.063  17.389  0.00  0.00    +0.156 C 
BRANCH 235 236
ATOM    236  C   UNK A  57       4.865  35.330  16.868  0.00  0.00    +0.358 C 
ATOM    237  O   UNK A  57       5.578  36.331  16.748  0.00  0.00    -0.246 OA
ATOM    238  O   UNK A  57       3.656  35.287  16.510  0.00  0.00    -0.246 OA
ENDBRANCH 235 236
ENDBRANCH 216 235
ENDBRANCH 214 216
ENDBRANCH 210 212
ENDBRANCH 208 210
ENDBRANCH 205 206
BRANCH 205 239
ATOM    239  C   UNK A  57       6.910  29.316  12.170  0.00  0.00    +0.032 C 
BRANCH 239 240
ATOM    240  C   UNK A  57       7.638  28.010  12.443  0.00  0.00    +0.000 C 
BRANCH 240 241
ATOM    241  C   UNK A  57       8.294  27.469  11.188  0.00  0.00    -0.019 C 
BRANCH 241 242
ATOM    242  C   UNK A  57       9.096  26.199  11.445  0.00  0.00    -0.086 C 
BRANCH 242 243
ATOM    243  N   UNK A  57       9.815  25.736  10.222  0.00  0.00    +0.378 N 
ATOM    244  H   UNK A  57      10.446  24.976  10.456  0.00  0.00    -0.090 HD
ATOM    245  H   UNK A  57      10.353  26.497   9.818  0.00  0.00    -0.090 HD
ATOM    246  H   UNK A  57       9.144  25.403   9.537  0.00  0.00    -0.090 HD
ENDBRANCH 242 243
ENDBRANCH 241 242
ENDBRANCH 240 241
ENDBRANCH 239 240
ENDBRANCH 205 239
ENDBRANCH 203 205
ENDBRANCH 200 201
BRANCH 200 247
ATOM    247  C   UNK A  57       3.919  33.519  13.045  0.00  0.00    +0.141 C 
ATOM    248  C   UNK A  57       2.803  34.522  12.664  0.00  0.00    +0.040 C 
BRANCH 247 249
ATOM    249  O   UNK A  57       4.967  34.162  13.785  0.00  0.00    -0.390 OA
ATOM    250  H   UNK A  57       5.239  35.008  13.343  0.00  0.00    +0.210 HD
ENDBRANCH 247 249
ENDBRANCH 200 247
ENDBRANCH 198 200
ENDBRANCH 195 196
BRANCH 195 251
ATOM    251  C   UNK A  57       2.306  32.291  18.258  0.00  0.00    +0.042 C 
BRANCH 251 252
ATOM    252  C   UNK A  57       2.046  33.074  19.552  0.00  0.00    +0.071 C 
BRANCH 252 253
ATOM    253  S   UNK A  57       2.851  32.352  21.008  0.00  0.00    -0.164 S 
ATOM    254  C   UNK A  57       1.767  30.977  21.311  0.00  0.00    +0.084 C 
ENDBRANCH 252 253
ENDBRANCH 251 252
ENDBRANCH 195 251
ENDBRANCH 193 195
ENDBRANCH 190 191
ENDBRANCH 187 190
ENDBRANCH 185 186
BRANCH 185 255
ATOM    255  C   UNK A  57      -3.740  37.414  17.729  0.00  0.00    +0.015 C 
ATOM    256  C   UNK A  57      -2.501  37.349  18.626  0.00  0.00    +0.010 C 
BRANCH 255 257
ATOM    257  C   UNK A  57      -3.385  37.914  16.312  0.00  0.00    +0.002 C 
ATOM    258  C   UNK A  57      -3.094  39.334  16.231  0.00  0.00    +0.004 C 
ENDBRANCH 255 257
ENDBRANCH 185 255
ENDBRANCH 182 185
ENDBRANCH 180 181
ENDBRANCH 177 180
ENDBRANCH 175 176
BRANCH 175 259
ATOM    259  C   UNK A  57     -10.748  31.956  20.296  0.00  0.00    +0.141 C 
ATOM    260  C   UNK A  57     -11.260  30.530  20.379  0.00  0.00    +0.040 C 
BRANCH 259 261
ATOM    261  O   UNK A  57     -11.429  32.801  21.214  0.00  0.00    -0.390 OA
ATOM    262  H   UNK A  57     -12.389  32.548  21.241  0.00  0.00    +0.210 HD
ENDBRANCH 259 261
ENDBRANCH 175 259
ENDBRANCH 172 175
ENDBRANCH 170 171
BRANCH 170 263
ATOM    263  C   UNK A  57      -7.102  31.884  24.534  0.00  0.00    +0.156 C 
BRANCH 263 264
ATOM    264  C   UNK A  57      -5.745  32.062  23.876  0.00  0.00    +0.358 C 
ATOM    265  O   UNK A  57      -4.734  31.922  24.576  0.00  0.00    -0.246 OA
ATOM    266  O   UNK A  57      -5.705  32.403  22.659  0.00  0.00    -0.246 OA
ENDBRANCH 263 264
ENDBRANCH 170 263
ENDBRANCH 168 170
ENDBRANCH 165 166
BRANCH 165 267
ATOM    267  C   UNK A  57      -8.537  26.360  24.845  0.00  0.00    +0.012 C 
ATOM    268  C   UNK A  57      -8.246  24.891  25.072  0.00  0.00    +0.009 C 
ATOM    269  C   UNK A  57      -8.775  26.660  23.364  0.00  0.00    +0.009 C 
ENDBRANCH 165 267
ENDBRANCH 162 165
ENDBRANCH 160 161
BRANCH 160 270
ATOM    270  C   UNK A  57      -4.879  27.519  29.549  0.00  0.00    +0.015 C 
ATOM    271  C   UNK A  57      -5.513  28.935  29.486  0.00  0.00    +0.010 C 
BRANCH 270 272
ATOM    272  C   UNK A  57      -4.645  27.075  31.029  0.00  0.00    +0.002 C 
ATOM    273  C   UNK A  57      -3.476  26.066  31.253  0.00  0.00    +0.004 C 
ENDBRANCH 270 272
ENDBRANCH 160 270
ENDBRANCH 158 160
ENDBRANCH 155 156
BRANCH 155 274
ATOM    274  C   UNK A  57      -5.918  21.831  28.124  0.00  0.00    +0.141 C 
ATOM    275  C   UNK A  57      -5.955  22.541  26.797  0.00  0.00    +0.040 C 
BRANCH 274 276
ATOM    276  O   UNK A  57      -5.180  20.618  27.991  0.00  0.00    -0.390 OA
ATOM    277  H   UNK A  57      -5.500  19.953  28.656  0.00  0.00    +0.210 HD
ENDBRANCH 274 276
ENDBRANCH 155 274
ENDBRANCH 153 155
ENDBRANCH 150 151
BRANCH 150 278
ATOM    278  C   UNK A  57      -4.157  21.944  33.836  0.00  0.00    +0.034 C 
BRANCH 278 279
ATOM    279  C   UNK A  57      -4.974  23.225  33.970  0.00  0.00    -0.015 C 
ATOM    280  C   UNK A  57      -4.472  24.065  35.171  0.00  0.00    +0.007 C 
ATOM    281  C   UNK A  57      -6.452  22.917  34.090  0.00  0.00    +0.007 C 
ENDBRANCH 278 279
ENDBRANCH 150 278
ENDBRANCH 148 150
ENDBRANCH 145 146
BRANCH 145 282
ATOM    282  C   UNK A  57      -3.155  17.334  30.692  0.00  0.00    +0.141 C 
ATOM    283  C   UNK A  57      -2.023  16.418  30.190  0.00  0.00    +0.040 C 
BRANCH 282 284
ATOM    284  O   UNK A  57      -4.417  16.786  30.324  0.00  0.00    -0.390 OA
ATOM    285  H   UNK A  57      -4.966  17.468  29.854  0.00  0.00    +0.210 HD
ENDBRANCH 282 284
ENDBRANCH 145 282
ENDBRANCH 143 145
ENDBRANCH 140 141
BRANCH 140 286
ATOM    286  C   UNK A  57      -1.757  13.795  35.156  0.00  0.00    +0.035 C 
BRANCH 286 287
ATOM    287  C   UNK A  57      -1.355  14.517  36.434  0.00  0.00    +0.039 C 
BRANCH 287 288
ATOM    288  C   UNK A  57       0.109  14.339  36.707  0.00  0.00    +0.196 C 
BRANCH 288 289
ATOM    289  N   UNK A  57       0.431  12.971  37.086  0.00  0.00    -0.279 N 
ATOM    290  H   UNK A  57      -0.332  12.396  37.429  0.00  0.00    +0.258 HD
ATOM    291  C   UNK A  57       1.644  12.419  37.032  0.00  0.00    +0.341 C 
ATOM    292  N   UNK A  57       1.823  11.166  37.418  0.00  0.00    -0.292 N 
ATOM    293  H   UNK A  57       1.035  10.618  37.748  0.00  0.00    +0.255 HD
ATOM    294  H   UNK A  57       2.745  10.741  37.378  0.00  0.00    +0.255 HD
ATOM    295  N   UNK A  57       2.693  13.125  36.602  0.00  0.00    -0.292 N 
ATOM    296  H   UNK A  57       3.610  12.692  36.574  0.00  0.00    +0.255 HD
ATOM    297  H   UNK A  57       2.620  14.096  36.317  0.00  0.00    +0.255 HD
ENDBRANCH 288 289
ENDBRANCH 287 288
ENDBRANCH 286 287
ENDBRANCH 140 286
ENDBRANCH 137 140
ENDBRANCH 135 136
BRANCH 135 298
ATOM    298  C   UNK A  57      -4.321  12.972  30.223  0.00  0.00    +0.156 C 
BRANCH 298 299
ATOM    299  C   UNK A  57      -5.199  12.226  29.234  0.00  0.00    +0.358 C 
ATOM    300  O   UNK A  57      -5.389  11.002  29.413  0.00  0.00    -0.246 OA
ATOM    301  O   UNK A  57      -5.684  12.864  28.274  0.00  0.00    -0.246 OA
ENDBRANCH 298 299
ENDBRANCH 135 298
ENDBRANCH 133 135
ENDBRANCH 130 131
BRANCH 130 302
ATOM    302  C   UNK A  57      -7.835  10.046  32.700  0.00  0.00    +0.041 C 
BRANCH 302 303
ATOM    303  C   UNK A  57      -9.021   9.389  33.428  0.00  0.00    +0.098 C 
BRANCH 303 304
ATOM    304  C   UNK A  57      -8.767   7.973  33.928  0.00  0.00    +0.211 C 
ATOM    305  N   UNK A  57      -9.502   7.569  34.958  0.00  0.00    -0.329 N 
ATOM    306  H   UNK A  57     -10.195   8.185  35.371  0.00  0.00    +0.145 HD
ATOM    307  H   UNK A  57      -9.375   6.634  35.331  0.00  0.00    +0.145 HD
ATOM    308  O   UNK A  57      -7.972   7.202  33.369  0.00  0.00    -0.276 OA
ENDBRANCH 303 304
ENDBRANCH 302 303
ENDBRANCH 130 302
ENDBRANCH 128 130
ENDBRANCH 125 126
BRANCH 125 309
ATOM    309  C   UNK A  57      -8.411  13.487  36.983  0.00  0.00    +0.032 C 
BRANCH 309 310
ATOM    310  C   UNK A  57      -8.642  14.645  37.940  0.00  0.00    +0.000 C 
BRANCH 310 311
ATOM    311  C   UNK A  57      -9.598  14.264  39.062  0.00  0.00    -0.019 C 
BRANCH 311 312
ATOM    312  C   UNK A  57      -9.945  15.435  39.949  0.00  0.00    -0.086 C 
BRANCH 312 313
ATOM    313  N   UNK A  57     -10.832  15.025  41.068  0.00  0.00    +0.378 N 
ATOM    314  H   UNK A  57     -10.322  14.438  41.720  0.00  0.00    -0.090 HD
ATOM    315  H   UNK A  57     -11.176  15.844  41.560  0.00  0.00    -0.090 HD
ATOM    316  H   UNK A  57     -11.625  14.504  40.707  0.00  0.00    -0.090 HD
ENDBRANCH 312 313
ENDBRANCH 311 312
ENDBRANCH 310 311
ENDBRANCH 309 310
ENDBRANCH 125 309
ENDBRANCH 122 125
ENDBRANCH 120 121
BRANCH 120 317
ATOM    317  C   UNK A  57      -7.635  15.839  31.390  0.00  0.00    +0.127 C 
BRANCH 317 318
ATOM    318  C   UNK A  57      -8.001  14.469  30.854  0.00  0.00    +0.213 C 
ATOM    319  O   UNK A  57      -7.834  13.456  31.522  0.00  0.00    -0.276 OA
ATOM    320  N   UNK A  57      -8.546  14.406  29.663  0.00  0.00    -0.329 N 
ATOM    321  H   UNK A  57      -8.805  13.504  29.277  0.00  0.00    +0.145 HD
ATOM    322  H   UNK A  57      -8.705  15.247  29.117  0.00  0.00    +0.145 HD
ENDBRANCH 317 318
ENDBRANCH 120 317
ENDBRANCH 117 120
ENDBRANCH 114 116
ENDBRANCH 108 109
BRANCH 108 323
ATOM    323  C   UNK A  57      -9.935  21.561  29.319  0.00  0.00    +0.015 C 
ATOM    324  C   UNK A  57     -10.588  20.155  29.146  0.00  0.00    +0.010 C 
BRANCH 323 325
ATOM    325  C   UNK A  57     -10.639  22.661  28.463  0.00  0.00    +0.002 C 
ATOM    326  C   UNK A  57     -10.760  22.352  27.012  0.00  0.00    +0.004 C 
ENDBRANCH 323 325
ENDBRANCH 108 323
ENDBRANCH 106 108
ENDBRANCH 103 104
BRANCH 103 327
ATOM    327  C   UNK A  57      -9.861  26.358  32.686  0.00  0.00    +0.034 C 
BRANCH 327 328
ATOM    328  C   UNK A  57      -9.597  27.854  32.770  0.00  0.00    -0.015 C 
ATOM    329  C   UNK A  57      -9.679  28.301  34.213  0.00  0.00    +0.007 C 
ATOM    330  C   UNK A  57      -8.280  28.214  32.112  0.00  0.00    +0.007 C 
ENDBRANCH 327 328
ENDBRANCH 103 327
ENDBRANCH 100 103
ENDBRANCH  98  99
BRANCH  98 331
ATOM    331  C   UNK A  57     -12.051  26.667  27.357  0.00  0.00    +0.127 C 
BRANCH 331 332
ATOM    332  C   UNK A  57     -13.250  27.183  26.600  0.00  0.00    +0.213 C 
ATOM    333  O   UNK A  57     -13.985  28.059  27.074  0.00  0.00    -0.276 OA
ATOM    334  N   UNK A  57     -13.404  26.723  25.367  0.00  0.00    -0.329 N 
ATOM    335  H   UNK A  57     -12.754  26.052  24.970  0.00  0.00    +0.145 HD
ATOM    336  H   UNK A  57     -14.191  27.041  24.811  0.00  0.00    +0.145 HD
ENDBRANCH 331 332
ENDBRANCH  98 331
ENDBRANCH  96  98
ENDBRANCH  93  94
BRANCH  93 337
ATOM    337  C   UNK A  57      -9.981  32.068  28.478  0.00  0.00    +0.015 C 
ATOM    338  C   UNK A  57      -8.943  31.180  29.180  0.00  0.00    +0.010 C 
BRANCH 337 339
ATOM    339  C   UNK A  57      -9.368  33.369  27.893  0.00  0.00    +0.002 C 
ATOM    340  C   UNK A  57      -8.782  34.261  28.906  0.00  0.00    +0.004 C 
ENDBRANCH 337 339
ENDBRANCH  93 337
ENDBRANCH  90  93
ENDBRANCH  88  89
BRANCH  88 341
ATOM    341  C   UNK A  57     -14.214  32.378  25.077  0.00  0.00    +0.088 C 
BRANCH 341 342
ATOM    342  C   UNK A  57     -14.078  31.197  24.156  0.00  0.00    +0.061 A 
ATOM    343  C   UNK A  57     -13.231  30.144  24.210  0.00  0.00    +0.107 A 
ATOM    344  N   UNK A  57     -13.482  29.371  23.105  0.00  0.00    -0.351 N 
ATOM    345  H   UNK A  57     -13.017  28.503  22.863  0.00  0.00    +0.166 HD
ATOM    346  C   UNK A  57     -14.449  29.965  22.423  0.00  0.00    +0.196 A 
ATOM    347  N   UNK A  57     -14.854  31.076  23.027  0.00  0.00    -0.241 NA
ENDBRANCH 341 342
ENDBRANCH  88 341
ENDBRANCH  86  88
ENDBRANCH  83  84
BRANCH  83 348
ATOM    348  C   UNK A  57     -13.174  36.957  21.826  0.00  0.00    +0.034 C 
BRANCH 348 349
ATOM    349  C   UNK A  57     -13.031  37.518  20.405  0.00  0.00    -0.015 C 
ATOM    350  C   UNK A  57     -12.986  39.050  20.430  0.00  0.00    +0.007 C 
ATOM    351  C   UNK A  57     -11.839  36.944  19.667  0.00  0.00    +0.007 C 
ENDBRANCH 348 349
ENDBRANCH  83 348
ENDBRANCH  80  83
ENDBRANCH  78  79
BRANCH  78 352
ATOM    352  C   UNK A  57     -16.469  32.479  20.011  0.00  0.00    +0.043 C 
BRANCH 352 353
ATOM    353  C   UNK A  57     -17.815  32.081  19.394  0.00  0.00    +0.127 C 
BRANCH 353 354
ATOM    354  C   UNK A  57     -18.967  33.069  19.509  0.00  0.00    +0.356 C 
ATOM    355  O   UNK A  57     -19.099  33.717  20.573  0.00  0.00    -0.246 OA
ATOM    356  O   UNK A  57     -19.756  33.172  18.539  0.00  0.00    -0.246 OA
ENDBRANCH 353 354
ENDBRANCH 352 353
ENDBRANCH  78 352
ENDBRANCH  76  78
ENDBRANCH  73  74
BRANCH  73 357
ATOM    357  C   UNK A  57     -17.214  35.470  15.530  0.00  0.00    +0.032 C 
BRANCH 357 358
ATOM    358  C   UNK A  57     -17.282  35.984  14.093  0.00  0.00    +0.000 C 
BRANCH 358 359
ATOM    359  C   UNK A  57     -18.729  36.265  13.669  0.00  0.00    -0.019 C 
BRANCH 359 360
ATOM    360  C   UNK A  57     -18.857  36.579  12.192  0.00  0.00    -0.086 C 
BRANCH 360 361
ATOM    361  N   UNK A  57     -20.284  36.602  11.752  0.00  0.00    +0.378 N 
ATOM    362  H   UNK A  57     -20.799  37.299  12.279  0.00  0.00    -0.090 HD
ATOM    363  H   UNK A  57     -20.709  35.693  11.904  0.00  0.00    -0.090 HD
ATOM    364  H   UNK A  57     -20.338  36.830  10.764  0.00  0.00    -0.090 HD
ENDBRANCH 360 361
ENDBRANCH 359 360
ENDBRANCH 358 359
ENDBRANCH 357 358
ENDBRANCH  73 357
ENDBRANCH  70  73
ENDBRANCH  68  69
ENDBRANCH  66  68
ENDBRANCH  63  64
BRANCH  63 365
ATOM    365  C   UNK A  57      -9.783  32.098  11.619  0.00  0.00    +0.187 C 
BRANCH 365 366
ATOM    366  O   UNK A  57      -9.424  33.319  12.254  0.00  0.00    -0.393 OA
ATOM    367  H   UNK A  57      -8.569  33.653  11.877  0.00  0.00    +0.209 HD
ENDBRANCH 365 366
ENDBRANCH  63 365
ENDBRANCH  60  63
ENDBRANCH  58  59
BRANCH  58 368
ATOM    368  CB  ASP A  56     -12.787  34.860   8.080  0.00  0.00    +0.156 C 
BRANCH 368 369
ATOM    369  CG  ASP A  56     -13.428  35.991   7.290  0.00  0.00    +0.358 C 
ATOM    370  OD2 ASP A  56     -14.319  36.678   7.844  0.00  0.00    -0.246 OA
ATOM    371  OD1 ASP A  56     -13.015  36.209   6.133  0.00  0.00    -0.246 OA
ENDBRANCH 368 369
ENDBRANCH  58 368
ENDBRANCH  56  58
ENDBRANCH  53  54
BRANCH  53 372
ATOM    372  CB  LEU A  55     -13.530  37.802  13.377  0.00  0.00    +0.034 C 
BRANCH 372 373
ATOM    373  CG  LEU A  55     -12.964  38.835  14.373  0.00  0.00    -0.015 C 
ATOM    374  CD2 LEU A  55     -12.027  38.180  15.404  0.00  0.00    +0.007 C 
ATOM    375  CD1 LEU A  55     -14.092  39.609  15.058  0.00  0.00    +0.007 C 
ENDBRANCH 372 373
ENDBRANCH  53 372
ENDBRANCH  51  53
ENDBRANCH  48  49
BRANCH  48 376
ATOM    376  CB  LYS A  54      -8.884  39.822  11.689  0.00  0.00    +0.032 C 
BRANCH 376 377
ATOM    377  CG  LYS A  54      -7.996  40.832  10.970  0.00  0.00    +0.000 C 
BRANCH 377 378
ATOM    378  CD  LYS A  54      -6.553  40.469  10.972  0.00  0.00    -0.019 C 
BRANCH 378 379
ATOM    379  CE  LYS A  54      -5.725  41.563  10.330  0.00  0.00    -0.086 C 
BRANCH 379 380
ATOM    380  NZ  LYS A  54      -4.271  41.288  10.367  0.00  0.00    +0.378 N 
ATOM    381  HZ1 LYS A  54      -3.969  41.144  11.325  0.00  0.00    -0.090 HD
ATOM    382  HZ2 LYS A  54      -3.762  42.074   9.974  0.00  0.00    -0.090 HD
ATOM    383  HZ3 LYS A  54      -4.061  40.455   9.827  0.00  0.00    -0.090 HD
ENDBRANCH 379 380
ENDBRANCH 378 379
ENDBRANCH 377 378
ENDBRANCH 376 377
ENDBRANCH  48 376
ENDBRANCH  45  48
ENDBRANCH  43  44
BRANCH  43 384
ATOM    384  CB  SER A  53     -11.666  39.570   6.535  0.00  0.00    +0.187 C 
BRANCH 384 385
ATOM    385  OG  SER A  53     -10.307  39.950   6.441  0.00  0.00    -0.393 OA
ATOM    386  H   SER A  53     -10.225  40.808   5.948  0.00  0.00    +0.209 HD
ENDBRANCH 384 385
ENDBRANCH  43 384
ENDBRANCH  41  43
ENDBRANCH  35  39
ENDBRANCH  31  32
BRANCH  31 387
ATOM    387  CB  ASP A  51      -8.770  43.861   8.824  0.00  0.00    +0.156 C 
BRANCH 387 388
ATOM    388  CG  ASP A  51      -8.827  42.795   7.726  0.00  0.00    +0.358 C 
ATOM    389  OD2 ASP A  51      -7.763  42.252   7.370  0.00  0.00    -0.246 OA
ATOM    390  OD1 ASP A  51      -9.931  42.528   7.210  0.00  0.00    -0.246 OA
ENDBRANCH 387 388
ENDBRANCH  31 387
ENDBRANCH  28  31
ENDBRANCH  26  27
BRANCH  26 391
ATOM    391  CB  THR A  50      -8.401  48.455  11.145  0.00  0.00    +0.141 C 
ATOM    392  CG2 THR A  50      -8.378  49.701  12.047  0.00  0.00    +0.040 C 
BRANCH 391 393
ATOM    393  OG1 THR A  50      -7.501  47.453  11.621  0.00  0.00    -0.390 OA
ATOM    394  HG1 THR A  50      -6.617  47.852  11.834  0.00  0.00    +0.210 HD
ENDBRANCH 391 393
ENDBRANCH  26 391
ENDBRANCH  24  26
ENDBRANCH  21  22
BRANCH  21 395
ATOM    395  CB  LEU A  49     -11.362  47.736  15.423  0.00  0.00    +0.034 C 
BRANCH 395 396
ATOM    396  CG  LEU A  49     -11.710  47.186  16.804  0.00  0.00    -0.015 C 
ATOM    397  CD2 LEU A  49     -11.287  48.136  17.892  0.00  0.00    +0.007 C 
ATOM    398  CD1 LEU A  49     -13.196  46.885  16.929  0.00  0.00    +0.007 C 
ENDBRANCH 395 396
ENDBRANCH  21 395
ENDBRANCH  18  21
ENDBRANCH  16  17
BRANCH  16 399
ATOM    399  CB  SER A  48     -11.424  42.092  14.515  0.00  0.00    +0.205 C 
ATOM    400  OG  SER A  48     -12.078  42.648  15.646  0.00  0.00    -0.218 OA
ENDBRANCH  16 399
ENDBRANCH  13  16
ENDBRANCH  11  12
BRANCH  11 401
ATOM    401  CB  GLU A  47      -6.071  42.896  14.283  0.00  0.00    +0.043 C 
BRANCH 401 402
ATOM    402  CG  GLU A  47      -4.630  43.047  14.697  0.00  0.00    +0.127 C 
BRANCH 402 403
ATOM    403  CD  GLU A  47      -3.700  42.007  14.097  0.00  0.00    +0.356 C 
ATOM    404  OE2 GLU A  47      -2.472  42.162  14.267  0.00  0.00    -0.246 OA
ATOM    405  OE1 GLU A  47      -4.190  41.021  13.496  0.00  0.00    -0.246 OA
ENDBRANCH 402 403
ENDBRANCH 401 402
ENDBRANCH  11 401
ENDBRANCH   8  11
ENDBRANCH   6   7
BRANCH   6 406
ATOM    406  CB  TYR A  46      -6.844  45.619  18.803  0.00  0.00    +0.067 C 
BRANCH 406 407
ATOM    407  CG  TYR A  46      -6.148  46.835  18.240  0.00  0.00    -0.045 A 
ATOM    408  CD2 TYR A  46      -6.681  48.103  18.408  0.00  0.00    +0.007 A 
ATOM    409  CE2 TYR A  46      -6.040  49.230  17.899  0.00  0.00    +0.045 A 
ATOM    410  CZ  TYR A  46      -4.874  49.090  17.171  0.00  0.00    +0.117 A 
ATOM    411  CE1 TYR A  46      -4.320  47.833  16.995  0.00  0.00    +0.045 A 
ATOM    412  CD1 TYR A  46      -4.981  46.711  17.497  0.00  0.00    +0.007 A 
BRANCH 410 413
ATOM    413  OH  TYR A  46      -4.212  50.197  16.693  0.00  0.00    -0.507 OA
ATOM    414  HH  TYR A  46      -3.734  49.990  15.847  0.00  0.00    +0.292 HD
ENDBRANCH 410 413
ENDBRANCH 406 407
ENDBRANCH   6 406
ENDBRANCH   3   6
ENDBRANCH   1   2
BRANCH   1 416
ATOM    415  C   ILE A  44      -8.428  40.835  17.580  0.00  0.00    +0.234 C 
ATOM    416  N   ARG A  45      -9.003  41.118  18.729  0.00  0.00    -0.302 N 
ATOM    417  H   ARG A  45      -8.727  40.746  19.632  0.00  0.00    +0.150 HD
ATOM    418  O   ILE A  44      -8.802  41.313  16.524  0.00  0.00    -0.274 OA
BRANCH 415 419
ATOM    419  CA  ILE A  44      -7.199  39.915  17.594  0.00  0.00    +0.162 C 
BRANCH 419 421
ATOM    420  C   LYS A  43      -5.678  41.455  18.732  0.00  0.00    +0.234 C 
ATOM    421  N   ILE A  44      -6.317  40.277  18.711  0.00  0.00    -0.302 N 
ATOM    422  H   ILE A  44      -6.245  39.579  19.444  0.00  0.00    +0.150 HD
ATOM    423  O   LYS A  43      -5.831  42.306  17.858  0.00  0.00    -0.274 OA
BRANCH 420 424
ATOM    424  CA  LYS A  43      -4.795  41.803  19.952  0.00  0.00    +0.159 C 
BRANCH 424 426
ATOM    425  C   ASP A  42      -6.620  42.260  21.565  0.00  0.00    +0.234 C 
ATOM    426  N   LYS A  43      -5.503  41.597  21.225  0.00  0.00    -0.302 N 
ATOM    427  H   LYS A  43      -5.068  40.898  21.818  0.00  0.00    +0.150 HD
ATOM    428  O   ASP A  42      -7.170  43.072  20.818  0.00  0.00    -0.274 OA
BRANCH 425 429
ATOM    429  CA  ASP A  42      -7.240  41.949  22.948  0.00  0.00    +0.170 C 
BRANCH 429 431
ATOM    430  C   LEU A  41      -7.864  39.614  22.391  0.00  0.00    +0.234 C 
ATOM    431  N   ASP A  42      -7.260  40.480  23.211  0.00  0.00    -0.302 N 
ATOM    432  H   ASP A  42      -6.793  40.205  24.069  0.00  0.00    +0.150 HD
ATOM    433  O   LEU A  41      -8.464  39.957  21.375  0.00  0.00    -0.274 OA
BRANCH 430 434
ATOM    434  CA  LEU A  41      -7.691  38.127  22.698  0.00  0.00    +0.159 C 
BRANCH 434 436
ATOM    435  C   ALA A  40      -5.293  37.869  22.155  0.00  0.00    +0.234 C 
ATOM    436  N   LEU A  41      -6.288  37.841  23.044  0.00  0.00    -0.302 N 
ATOM    437  H   LEU A  41      -6.156  37.590  24.018  0.00  0.00    +0.150 HD
ATOM    438  O   ALA A  40      -5.463  38.118  20.936  0.00  0.00    -0.274 OA
BRANCH 435 439
ATOM    439  CA  ALA A  40      -3.872  37.579  22.709  0.00  0.00    +0.156 C 
ATOM    440  CB  ALA A  40      -3.566  36.092  22.657  0.00  0.00    +0.038 C 
BRANCH 439 442
ATOM    441  C   ASP A  39      -3.776  39.420  24.332  0.00  0.00    +0.234 C 
ATOM    442  N   ALA A  40      -3.703  38.100  24.067  0.00  0.00    -0.303 N 
ATOM    443  H   ALA A  40      -3.552  37.385  24.772  0.00  0.00    +0.149 HD
ATOM    444  O   ASP A  39      -3.985  40.244  23.444  0.00  0.00    -0.274 OA
BRANCH 441 445
ATOM    445  CA  ASP A  39      -3.626  39.882  25.806  0.00  0.00    +0.170 C 
BRANCH 445 447
ATOM    446  C   SER A  38      -5.721  38.885  26.647  0.00  0.00    +0.236 C 
ATOM    447  N   ASP A  39      -4.391  39.012  26.717  0.00  0.00    -0.302 N 
ATOM    448  H   ASP A  39      -3.819  38.507  27.386  0.00  0.00    +0.150 HD
ATOM    449  O   SER A  38      -6.404  39.492  25.815  0.00  0.00    -0.274 OA
BRANCH 446 450
ATOM    450  CA  SER A  38      -6.382  37.855  27.559  0.00  0.00    +0.184 C 
BRANCH 450 452
ATOM    451  C   SER A  37      -5.379  35.871  26.552  0.00  0.00    +0.236 C 
ATOM    452  N   SER A  38      -5.625  36.603  27.630  0.00  0.00    -0.300 N 
ATOM    453  H   SER A  38      -5.314  36.357  28.565  0.00  0.00    +0.150 HD
ATOM    454  O   SER A  37      -5.738  36.207  25.423  0.00  0.00    -0.274 OA
BRANCH 451 455
ATOM    455  CA  SER A  37      -4.528  34.589  26.753  0.00  0.00    +0.184 C 
BRANCH 455 457
ATOM    456  C   ASN A  36      -2.451  35.763  27.225  0.00  0.00    +0.234 C 
ATOM    457  N   SER A  37      -3.364  34.890  27.600  0.00  0.00    -0.301 N 
ATOM    458  H   SER A  37      -3.354  34.389  28.484  0.00  0.00    +0.150 HD
ATOM    459  O   ASN A  36      -2.517  36.395  26.181  0.00  0.00    -0.274 OA
BRANCH 456 460
ATOM    460  CA  ASN A  36      -1.337  36.023  28.189  0.00  0.00    +0.168 C 
BRANCH 460 462
ATOM    461  C   SER A  35      -2.674  37.077  29.941  0.00  0.00    +0.236 C 
ATOM    462  N   ASN A  36      -1.863  36.081  29.560  0.00  0.00    -0.302 N 
ATOM    463  H   ASN A  36      -1.590  35.306  30.156  0.00  0.00    +0.150 HD
ATOM    464  O   SER A  35      -3.079  37.923  29.141  0.00  0.00    -0.274 OA
BRANCH 461 465
ATOM    465  CA  SER A  35      -3.192  37.060  31.392  0.00  0.00    +0.184 C 
BRANCH 465 467
ATOM    466  C   ILE A  34      -4.561  35.031  31.162  0.00  0.00    +0.234 C 
ATOM    467  N   SER A  35      -3.585  35.712  31.793  0.00  0.00    -0.301 N 
ATOM    468  H   SER A  35      -3.060  35.352  32.584  0.00  0.00    +0.150 HD
ATOM    469  O   ILE A  34      -5.197  35.499  30.212  0.00  0.00    -0.274 OA
BRANCH 466 470
ATOM    470  CA  ILE A  34      -4.837  33.591  31.651  0.00  0.00    +0.162 C 
BRANCH 470 472
ATOM    471  C   LEU A  33      -2.696  32.646  30.985  0.00  0.00    +0.234 C 
ATOM    472  N   ILE A  34      -3.577  32.897  31.959  0.00  0.00    -0.302 N 
ATOM    473  H   ILE A  34      -3.452  32.646  32.934  0.00  0.00    +0.150 HD
ATOM    474  O   LEU A  33      -2.872  33.038  29.827  0.00  0.00    -0.274 OA
BRANCH 471 475
ATOM    475  CA  LEU A  33      -1.372  31.979  31.373  0.00  0.00    +0.159 C 
BRANCH 475 477
ATOM    476  C   GLU A  32      -0.392  33.821  32.703  0.00  0.00    +0.234 C 
ATOM    477  N   LEU A  33      -0.848  32.562  32.620  0.00  0.00    -0.302 N 
ATOM    478  H   LEU A  33      -0.899  31.937  33.418  0.00  0.00    +0.150 HD
ATOM    479  O   GLU A  32      -0.376  34.584  31.743  0.00  0.00    -0.274 OA
BRANCH 476 480
ATOM    480  CA  GLU A  32       0.093  34.326  34.088  0.00  0.00    +0.159 C 
BRANCH 480 482
ATOM    481  C   ARG A  31      -2.056  34.358  35.272  0.00  0.00    +0.234 C 
ATOM    482  N   GLU A  32      -0.792  33.917  35.175  0.00  0.00    -0.302 N 
ATOM    483  H   GLU A  32      -0.384  33.252  35.823  0.00  0.00    +0.150 HD
ATOM    484  O   ARG A  31      -2.565  35.111  34.449  0.00  0.00    -0.274 OA
BRANCH 481 485
ATOM    485  CA  ARG A  31      -2.860  33.901  36.481  0.00  0.00    +0.159 C 
BRANCH 485 487
ATOM    486  C   LEU A  30      -2.938  31.521  35.806  0.00  0.00    +0.234 C 
ATOM    487  N   ARG A  31      -2.670  32.454  36.721  0.00  0.00    -0.302 N 
ATOM    488  H   ARG A  31      -2.347  32.228  37.656  0.00  0.00    +0.150 HD
ATOM    489  O   LEU A  30      -3.373  31.794  34.692  0.00  0.00    -0.274 OA
BRANCH 486 490
ATOM    490  CA  LEU A  30      -2.560  30.067  36.151  0.00  0.00    +0.159 C 
BRANCH 490 492
ATOM    491  C   PHE A  29      -0.108  30.288  36.185  0.00  0.00    +0.234 C 
ATOM    492  N   LEU A  30      -1.251  29.984  36.835  0.00  0.00    -0.302 N 
ATOM    493  H   LEU A  30      -1.306  29.661  37.795  0.00  0.00    +0.150 HD
ATOM    494  O   PHE A  29      -0.084  30.693  35.019  0.00  0.00    -0.274 OA
BRANCH 491 495
ATOM    495  CA  PHE A  29       1.215  30.033  36.924  0.00  0.00    +0.163 C 
BRANCH 495 497
ATOM    496  C   ILE A  28       0.743  31.643  38.721  0.00  0.00    +0.234 C 
ATOM    497  N   PHE A  29       1.105  30.400  38.340  0.00  0.00    -0.302 N 
ATOM    498  H   PHE A  29       1.342  29.644  38.973  0.00  0.00    +0.150 HD
ATOM    499  O   ILE A  28       0.498  32.526  37.909  0.00  0.00    -0.274 OA
BRANCH 496 500
ATOM    500  CA  ILE A  28       0.674  31.977  40.239  0.00  0.00    +0.162 C 
BRANCH 500 502
ATOM    501  C   GLU A  27      -0.539  29.923  40.919  0.00  0.00    +0.234 C 
ATOM    502  N   ILE A  28       0.497  30.785  41.072  0.00  0.00    -0.302 N 
ATOM    503  H   ILE A  28       1.213  30.667  41.779  0.00  0.00    +0.150 HD
ATOM    504  O   GLU A  27      -1.442  30.105  40.109  0.00  0.00    -0.274 OA
BRANCH 501 505
ATOM    505  CA  GLU A  27      -0.610  28.690  41.848  0.00  0.00    +0.159 C 
BRANCH 505 507
ATOM    506  C   LYS A  26       1.783  28.061  41.887  0.00  0.00    +0.234 C 
ATOM    507  N   GLU A  27       0.646  28.342  42.536  0.00  0.00    -0.302 N 
ATOM    508  H   GLU A  27       0.568  28.336  43.548  0.00  0.00    +0.150 HD
ATOM    509  O   LYS A  26       1.883  28.125  40.655  0.00  0.00    -0.274 OA
BRANCH 506 510
ATOM    510  CA  LYS A  26       3.017  27.626  42.710  0.00  0.00    +0.159 C 
BRANCH 510 512
ATOM    511  C   ASN A  25       3.179  29.275  44.539  0.00  0.00    +0.234 C 
ATOM    512  N   LYS A  26       3.024  28.012  44.127  0.00  0.00    -0.302 N 
ATOM    513  H   LYS A  26       2.836  27.236  44.753  0.00  0.00    +0.150 HD
ATOM    514  O   ASN A  25       3.203  30.232  43.765  0.00  0.00    -0.274 OA
BRANCH 511 515
ATOM    515  CA  ASN A  25       3.277  29.486  46.065  0.00  0.00    +0.168 C 
BRANCH 515 518
ATOM    516  C   SER A  24       4.377  27.463  46.950  0.00  0.00    +0.236 C 
ATOM    517  O   SER A  24       3.373  26.781  46.764  0.00  0.00    -0.274 OA
ATOM    518  N   ASN A  25       4.441  28.756  46.604  0.00  0.00    -0.302 N 
ATOM    519  H   ASN A  25       5.284  29.319  46.655  0.00  0.00    +0.150 HD
BRANCH 516 520
ATOM    520  CA  SER A  24       5.579  26.790  47.598  0.00  0.00    +0.184 C 
BRANCH 520 522
ATOM    521  C   TYR A  23       7.580  27.178  46.262  0.00  0.00    +0.234 C 
ATOM    522  N   SER A  24       6.875  27.412  47.370  0.00  0.00    -0.301 N 
ATOM    523  H   SER A  24       7.157  28.057  48.100  0.00  0.00    +0.150 HD
ATOM    524  O   TYR A  23       7.135  26.528  45.324  0.00  0.00    -0.274 OA
BRANCH 521 525
ATOM    525  CA  TYR A  23       8.995  27.764  46.190  0.00  0.00    +0.163 C 
BRANCH 525 528
ATOM    526  C   PHE A  22      11.183  26.804  46.632  0.00  0.00    +0.234 C 
ATOM    527  O   PHE A  22      11.628  27.889  47.010  0.00  0.00    -0.274 OA
ATOM    528  N   TYR A  23       9.943  26.658  46.212  0.00  0.00    -0.302 N 
ATOM    529  H   TYR A  23       9.562  25.779  45.877  0.00  0.00    +0.150 HD
BRANCH 526 530
ATOM    530  CA  PHE A  22      12.104  25.574  46.531  0.00  0.00    +0.163 C 
BRANCH 530 532
ATOM    531  C   THR A  21      12.983  26.118  44.349  0.00  0.00    +0.236 C 
ATOM    532  N   PHE A  22      13.187  25.989  45.660  0.00  0.00    -0.302 N 
ATOM    533  H   PHE A  22      14.068  26.163  46.134  0.00  0.00    +0.150 HD
ATOM    534  O   THR A  21      11.907  25.843  43.822  0.00  0.00    -0.274 OA
BRANCH 531 535
ATOM    535  CA  THR A  21      14.147  26.674  43.514  0.00  0.00    +0.187 C 
BRANCH 535 538
ATOM    536  C   ASN A  20      15.063  24.802  42.275  0.00  0.00    +0.234 C 
ATOM    537  O   ASN A  20      15.674  24.422  43.278  0.00  0.00    -0.274 OA
ATOM    538  N   THR A  21      14.283  25.892  42.284  0.00  0.00    -0.300 N 
ATOM    539  H   THR A  21      13.741  26.243  41.501  0.00  0.00    +0.150 HD
BRANCH 536 540
ATOM    540  CA  ASN A  20      15.212  23.985  40.998  0.00  0.00    +0.168 C 
BRANCH 540 543
ATOM    541  C   ILE A  19      13.180  23.785  39.584  0.00  0.00    +0.234 C 
ATOM    542  O   ILE A  19      12.648  22.972  40.342  0.00  0.00    -0.274 OA
ATOM    543  N   ASN A  20      14.362  24.372  39.854  0.00  0.00    -0.302 N 
ATOM    544  H   ASN A  20      14.754  25.136  39.311  0.00  0.00    +0.150 HD
BRANCH 541 545
ATOM    545  CA  ILE A  19      12.456  24.182  38.261  0.00  0.00    +0.162 C 
BRANCH 545 548
ATOM    546  C   ILE A  18      11.906  26.516  38.700  0.00  0.00    +0.234 C 
ATOM    547  O   ILE A  18      11.153  26.203  39.619  0.00  0.00    -0.274 OA
ATOM    548  N   ILE A  19      12.561  25.619  37.989  0.00  0.00    -0.302 N 
ATOM    549  H   ILE A  19      13.172  25.857  37.213  0.00  0.00    +0.150 HD
BRANCH 546 550
ATOM    550  CA  ILE A  18      12.105  27.991  38.310  0.00  0.00    +0.162 C 
BRANCH 550 553
ATOM    551  C   LEU A  17      14.478  28.159  38.898  0.00  0.00    +0.234 C 
ATOM    552  O   LEU A  17      14.250  27.805  40.061  0.00  0.00    -0.274 OA
ATOM    553  N   ILE A  18      13.513  28.258  37.979  0.00  0.00    -0.302 N 
ATOM    554  H   ILE A  18      13.682  28.515  37.011  0.00  0.00    +0.150 HD
BRANCH 551 555
ATOM    555  CA  LEU A  17      15.915  28.467  38.449  0.00  0.00    +0.159 C 
BRANCH 555 558
ATOM    556  C   SER A  16      16.180  26.538  36.976  0.00  0.00    +0.236 C 
ATOM    557  O   SER A  16      15.904  25.750  37.879  0.00  0.00    -0.274 OA
ATOM    558  N   LEU A  17      16.208  27.851  37.149  0.00  0.00    -0.302 N 
ATOM    559  H   LEU A  17      16.441  28.514  36.416  0.00  0.00    +0.150 HD
BRANCH 556 560
ATOM    560  CA  SER A  16      16.437  26.013  35.568  0.00  0.00    +0.184 C 
BRANCH 560 563
ATOM    561  C   MET A  15      14.367  26.925  34.568  0.00  0.00    +0.234 C 
ATOM    562  O   MET A  15      13.645  26.335  35.379  0.00  0.00    -0.274 OA
ATOM    563  N   SER A  16      15.706  26.848  34.590  0.00  0.00    -0.301 N 
ATOM    564  H   SER A  16      16.314  27.348  33.949  0.00  0.00    +0.150 HD
BRANCH 561 565
ATOM    565  CA  MET A  15      13.726  27.866  33.511  0.00  0.00    +0.160 C 
BRANCH 565 568
ATOM    566  C   LEU A  14      14.632  29.944  34.413  0.00  0.00    +0.234 C 
ATOM    567  O   LEU A  14      14.155  29.710  35.526  0.00  0.00    -0.274 OA
ATOM    568  N   MET A  15      14.469  29.117  33.375  0.00  0.00    -0.302 N 
ATOM    569  H   MET A  15      14.852  29.288  32.451  0.00  0.00    +0.150 HD
BRANCH 566 570
ATOM    570  CA  LEU A  14      15.446  31.217  34.168  0.00  0.00    +0.159 C 
BRANCH 570 573
ATOM    571  C   GLN A  13      17.636  30.142  33.961  0.00  0.00    +0.234 C 
ATOM    572  O   GLN A  13      17.541  29.646  35.084  0.00  0.00    -0.274 OA
ATOM    573  N   LEU A  14      16.684  30.921  33.431  0.00  0.00    -0.302 N 
ATOM    574  H   LEU A  14      16.748  31.364  32.520  0.00  0.00    +0.150 HD
BRANCH 571 575
ATOM    575  CA  GLN A  13      18.859  29.856  33.104  0.00  0.00    +0.159 C 
BRANCH 575 578
ATOM    576  C   ALA A  12      17.730  28.488  31.370  0.00  0.00    +0.234 C 
ATOM    577  O   ALA A  12      17.273  27.682  32.196  0.00  0.00    -0.274 OA
ATOM    578  N   GLN A  13      18.479  29.549  31.714  0.00  0.00    -0.302 N 
ATOM    579  H   GLN A  13      18.861  30.202  31.038  0.00  0.00    +0.150 HD
BRANCH 576 580
ATOM    580  CA  ALA A  12      17.394  28.363  29.855  0.00  0.00    +0.156 C 
ATOM    581  CB  ALA A  12      18.597  27.815  29.090  0.00  0.00    +0.038 C 
BRANCH 580 584
ATOM    582  C   ILE A  11      15.978  30.406  29.816  0.00  0.00    +0.234 C 
ATOM    583  O   ILE A  11      15.248  29.993  30.714  0.00  0.00    -0.274 OA
ATOM    584  N   ALA A  12      17.008  29.684  29.321  0.00  0.00    -0.303 N 
ATOM    585  H   ALA A  12      17.588  29.999  28.549  0.00  0.00    +0.149 HD
BRANCH 582 586
ATOM    586  CA  ILE A  11      15.708  31.801  29.219  0.00  0.00    +0.162 C 
BRANCH 586 589
ATOM    587  C   GLU A  10      17.741  32.935  30.074  0.00  0.00    +0.234 C 
ATOM    588  O   GLU A  10      17.423  32.762  31.248  0.00  0.00    -0.274 OA
ATOM    589  N   ILE A  11      16.975  32.517  29.033  0.00  0.00    -0.302 N 
ATOM    590  H   ILE A  11      17.216  32.670  28.059  0.00  0.00    +0.150 HD
BRANCH 587 591
ATOM    591  CA  GLU A  10      19.103  33.601  29.751  0.00  0.00    +0.159 C 
BRANCH 591 594
ATOM    592  C   ALA A   9      20.168  31.743  28.576  0.00  0.00    +0.234 C 
ATOM    593  O   ALA A   9      20.003  30.977  29.524  0.00  0.00    -0.274 OA
ATOM    594  N   GLU A  10      19.742  33.013  28.578  0.00  0.00    -0.302 N 
ATOM    595  H   GLU A  10      19.859  33.639  27.789  0.00  0.00    +0.150 HD
BRANCH 592 596
ATOM    596  CA  ALA A   9      20.845  31.238  27.306  0.00  0.00    +0.156 C 
ATOM    597  CB  ALA A   9      22.259  31.798  27.226  0.00  0.00    +0.038 C 
BRANCH 596 600
ATOM    598  C   GLN A   8      18.818  31.349  25.904  0.00  0.00    +0.234 C 
ATOM    599  O   GLN A   8      18.099  30.872  26.799  0.00  0.00    -0.274 OA
ATOM    600  N   ALA A   9      20.122  31.557  26.071  0.00  0.00    -0.303 N 
ATOM    601  H   ALA A   9      20.712  31.973  25.359  0.00  0.00    +0.149 HD
BRANCH 598 602
ATOM    602  CA  GLN A   8      18.231  31.625  24.493  0.00  0.00    +0.159 C 
BRANCH 602 605
ATOM    603  C   PHE A   7      17.662  29.242  24.297  0.00  0.00    +0.234 C 
ATOM    604  O   PHE A   7      18.812  28.863  24.466  0.00  0.00    -0.274 OA
ATOM    605  N   GLN A   8      17.313  30.519  24.242  0.00  0.00    -0.302 N 
ATOM    606  H   GLN A   8      16.359  30.804  24.051  0.00  0.00    +0.150 HD
BRANCH 603 607
ATOM    607  CA  PHE A   7      16.543  28.238  24.264  0.00  0.00    +0.163 C 
BRANCH 607 609
ATOM    608  C   ALA A   6      17.474  26.894  22.489  0.00  0.00    +0.234 C 
ATOM    609  N   PHE A   7      17.065  26.975  23.762  0.00  0.00    -0.302 N 
ATOM    610  H   PHE A   7      17.078  26.208  24.427  0.00  0.00    +0.150 HD
ATOM    611  O   ALA A   6      17.350  27.827  21.704  0.00  0.00    -0.274 OA
BRANCH 608 612
ATOM    612  CA  ALA A   6      18.221  25.625  22.039  0.00  0.00    +0.156 C 
ATOM    613  CB  ALA A   6      19.713  25.941  21.996  0.00  0.00    +0.038 C 
BRANCH 612 616
ATOM    614  C   PHE A   5      16.635  24.570  20.519  0.00  0.00    +0.234 C 
ATOM    615  O   PHE A   5      15.996  24.069  21.441  0.00  0.00    -0.274 OA
ATOM    616  N   ALA A   6      17.715  25.283  20.705  0.00  0.00    -0.303 N 
ATOM    617  H   ALA A   6      18.273  25.659  19.944  0.00  0.00    +0.149 HD
BRANCH 614 618
ATOM    618  CA  PHE A   5      16.142  24.478  19.100  0.00  0.00    +0.163 C 
BRANCH 618 620
ATOM    619  C   THR A   4      15.734  22.366  17.889  0.00  0.00    +0.236 C 
ATOM    620  N   PHE A   5      15.456  23.204  18.878  0.00  0.00    -0.302 N 
ATOM    621  H   PHE A   5      14.737  23.026  19.571  0.00  0.00    +0.150 HD
ATOM    622  O   THR A   4      16.644  22.555  17.082  0.00  0.00    -0.274 OA
BRANCH 619 623
ATOM    623  CA  THR A   4      14.877  21.130  17.805  0.00  0.00    +0.187 C 
BRANCH 623 626
ATOM    624  C   GLU A   3      13.226  20.978  15.979  0.00  0.00    +0.234 C 
ATOM    625  O   GLU A   3      12.261  21.175  16.719  0.00  0.00    -0.274 OA
ATOM    626  N   THR A   4      14.505  20.931  16.411  0.00  0.00    -0.300 N 
ATOM    627  H   THR A   4      15.302  20.786  15.799  0.00  0.00    +0.150 HD
BRANCH 624 628
ATOM    628  CA  GLU A   3      12.979  20.773  14.500  0.00  0.00    +0.159 C 
BRANCH 628 630
ATOM    629  C   VAL A   2      11.721  18.716  13.932  0.00  0.00    +0.234 C 
ATOM    630  N   GLU A   3      11.746  19.994  14.371  0.00  0.00    -0.302 N 
ATOM    631  H   GLU A   3      10.920  20.515  14.648  0.00  0.00    +0.150 HD
ATOM    632  O   VAL A   2      12.736  18.107  13.564  0.00  0.00    -0.274 OA
BRANCH 629 633
ATOM    633  CA  VAL A   2      10.365  18.003  13.944  0.00  0.00    +0.161 C 
BRANCH 633 635
ATOM    634  C   ALA A   1       9.229  17.952  11.753  0.00  0.00    +0.234 C 
ATOM    635  N   VAL A   2      10.075  17.388  12.634  0.00  0.00    -0.302 N 
ATOM    636  H   VAL A   2      10.555  16.505  12.489  0.00  0.00    +0.150 HD
ATOM    637  O   ALA A   1       8.638  19.003  11.991  0.00  0.00    -0.274 OA
BRANCH 634 639
ATOM    638  N   ALA A   1      10.194  16.653   9.858  0.00  0.00    -0.130 NA
ATOM    639  CA  ALA A   1       8.960  17.211  10.425  0.00  0.00    +0.175 C 
ATOM    640  CB  ALA A   1       7.932  16.110  10.655  0.00  0.00    +0.037 C 
ENDBRANCH 634 639
ENDBRANCH 633 635
BRANCH 633 641
ATOM    641  CB  VAL A   2      10.291  16.958  15.069  0.00  0.00    +0.012 C 
ATOM    642  CG2 VAL A   2      10.539  17.596  16.442  0.00  0.00    +0.009 C 
ATOM    643  CG1 VAL A   2       8.955  16.205  15.042  0.00  0.00    +0.009 C 
ENDBRANCH 633 641
ENDBRANCH 629 633
ENDBRANCH 628 630
BRANCH 628 644
ATOM    644  CB  GLU A   3      12.877  22.124  13.827  0.00  0.00    +0.043 C 
BRANCH 644 645
ATOM    645  CG  GLU A   3      12.882  22.028  12.315  0.00  0.00    +0.127 C 
BRANCH 645 646
ATOM    646  CD  GLU A   3      12.652  23.374  11.672  0.00  0.00    +0.356 C 
ATOM    647  OE2 GLU A   3      11.551  23.940  11.863  0.00  0.00    -0.246 OA
ATOM    648  OE1 GLU A   3      13.577  23.871  10.992  0.00  0.00    -0.246 OA
ENDBRANCH 645 646
ENDBRANCH 644 645
ENDBRANCH 628 644
ENDBRANCH 624 628
ENDBRANCH 623 626
BRANCH 623 649
ATOM    649  CB  THR A   4      15.619  19.905  18.402  0.00  0.00    +0.141 C 
ATOM    650  CG2 THR A   4      15.948  20.100  19.863  0.00  0.00    +0.040 C 
BRANCH 649 651
ATOM    651  OG1 THR A   4      14.809  18.734  18.271  0.00  0.00    -0.390 OA
ATOM    652  HG1 THR A   4      14.750  18.445  17.323  0.00  0.00    +0.210 HD
ENDBRANCH 649 651
ENDBRANCH 623 649
ENDBRANCH 619 623
ENDBRANCH 618 620
BRANCH 618 653
ATOM    653  CB  PHE A   5      15.141  25.643  18.878  0.00  0.00    +0.067 C 
BRANCH 653 654
ATOM    654  CG  PHE A   5      14.500  25.630  17.513  0.00  0.00    -0.045 A 
ATOM    655  CD2 PHE A   5      13.327  24.947  17.296  0.00  0.00    +0.004 A 
ATOM    656  CE2 PHE A   5      12.740  24.907  16.031  0.00  0.00    +0.000 A 
ATOM    657  CZ  PHE A   5      13.341  25.526  14.981  0.00  0.00    +0.000 A 
ATOM    658  CE1 PHE A   5      14.489  26.259  15.182  0.00  0.00    +0.000 A 
ATOM    659  CD1 PHE A   5      15.108  26.250  16.434  0.00  0.00    +0.004 A 
ENDBRANCH 653 654
ENDBRANCH 618 653
ENDBRANCH 614 618
ENDBRANCH 612 616
ENDBRANCH 608 612
ENDBRANCH 607 609
BRANCH 607 660
ATOM    660  CB  PHE A   7      16.047  28.111  25.708  0.00  0.00    +0.067 C 
BRANCH 660 661
ATOM    661  CG  PHE A   7      14.684  27.496  25.815  0.00  0.00    -0.045 A 
ATOM    662  CD2 PHE A   7      14.520  26.210  26.302  0.00  0.00    +0.004 A 
ATOM    663  CE2 PHE A   7      13.251  25.665  26.459  0.00  0.00    +0.000 A 
ATOM    664  CZ  PHE A   7      12.136  26.393  26.089  0.00  0.00    +0.000 A 
ATOM    665  CE1 PHE A   7      12.290  27.648  25.563  0.00  0.00    +0.000 A 
ATOM    666  CD1 PHE A   7      13.555  28.214  25.459  0.00  0.00    +0.004 A 
ENDBRANCH 660 661
ENDBRANCH 607 660
ENDBRANCH 603 607
ENDBRANCH 602 605
BRANCH 602 667
ATOM    667  CB  GLN A   8      17.467  32.969  24.497  0.00  0.00    +0.041 C 
BRANCH 667 668
ATOM    668  CG  GLN A   8      16.913  33.434  23.112  0.00  0.00    +0.098 C 
BRANCH 668 669
ATOM    669  CD  GLN A   8      15.609  32.780  22.646  0.00  0.00    +0.211 C 
ATOM    670  OE1 GLN A   8      15.100  31.809  23.248  0.00  0.00    -0.276 OA
ATOM    671  NE2 GLN A   8      15.072  33.246  21.502  0.00  0.00    -0.329 N 
ATOM    672 HE21 GLN A   8      14.210  32.843  21.149  0.00  0.00    +0.145 HD
ATOM    673 HE22 GLN A   8      15.529  33.992  20.987  0.00  0.00    +0.145 HD
ENDBRANCH 668 669
ENDBRANCH 667 668
ENDBRANCH 602 667
ENDBRANCH 598 602
ENDBRANCH 596 600
ENDBRANCH 592 596
ENDBRANCH 591 594
BRANCH 591 674
ATOM    674  CB  GLU A  10      18.999  35.144  29.635  0.00  0.00    +0.043 C 
BRANCH 674 675
ATOM    675  CG  GLU A  10      18.001  35.679  28.610  0.00  0.00    +0.127 C 
BRANCH 675 676
ATOM    676  CD  GLU A  10      18.403  35.634  27.143  0.00  0.00    +0.356 C 
ATOM    677  OE2 GLU A  10      19.579  35.313  26.836  0.00  0.00    -0.246 OA
ATOM    678  OE1 GLU A  10      17.527  35.928  26.297  0.00  0.00    -0.246 OA
ENDBRANCH 675 676
ENDBRANCH 674 675
ENDBRANCH 591 674
ENDBRANCH 587 591
ENDBRANCH 586 589
BRANCH 586 679
ATOM    679  CB  ILE A  11      14.869  31.758  27.912  0.00  0.00    +0.015 C 
ATOM    680  CG2 ILE A  11      13.650  30.821  28.100  0.00  0.00    +0.010 C 
BRANCH 679 681
ATOM    681  CG1 ILE A  11      14.442  33.215  27.509  0.00  0.00    +0.002 C 
ATOM    682  CD1 ILE A  11      13.762  33.401  26.156  0.00  0.00    +0.004 C 
ENDBRANCH 679 681
ENDBRANCH 586 679
ENDBRANCH 582 586
ENDBRANCH 580 584
ENDBRANCH 576 580
ENDBRANCH 575 578
BRANCH 575 683
ATOM    683  CB  GLN A  13      19.786  31.078  33.165  0.00  0.00    +0.041 C 
BRANCH 683 684
ATOM    684  CG  GLN A  13      21.216  30.837  32.711  0.00  0.00    +0.098 C 
BRANCH 684 685
ATOM    685  CD  GLN A  13      21.926  32.176  32.638  0.00  0.00    +0.211 C 
ATOM    686  OE1 GLN A  13      21.775  33.030  33.524  0.00  0.00    -0.276 OA
ATOM    687  NE2 GLN A  13      22.648  32.437  31.554  0.00  0.00    -0.329 N 
ATOM    688 HE21 GLN A  13      23.131  33.326  31.475  0.00  0.00    +0.145 HD
ATOM    689 HE22 GLN A  13      22.719  31.760  30.801  0.00  0.00    +0.145 HD
ENDBRANCH 684 685
ENDBRANCH 683 684
ENDBRANCH 575 683
ENDBRANCH 571 575
ENDBRANCH 570 573
BRANCH 570 690
ATOM    690  CB  LEU A  14      14.596  32.266  33.422  0.00  0.00    +0.034 C 
BRANCH 690 691
ATOM    691  CG  LEU A  14      13.212  32.549  34.034  0.00  0.00    -0.015 C 
ATOM    692  CD2 LEU A  14      13.319  32.985  35.496  0.00  0.00    +0.007 C 
ATOM    693  CD1 LEU A  14      12.461  33.580  33.225  0.00  0.00    +0.007 C 
ENDBRANCH 690 691
ENDBRANCH 570 690
ENDBRANCH 566 570
ENDBRANCH 565 568
BRANCH 565 694
ATOM    694  CB  MET A  15      13.605  27.164  32.164  0.00  0.00    +0.042 C 
BRANCH 694 695
ATOM    695  CG  MET A  15      12.692  27.896  31.184  0.00  0.00    +0.071 C 
BRANCH 695 696
ATOM    696  SD  MET A  15      12.701  27.192  29.510  0.00  0.00    -0.164 S 
ATOM    697  CE  MET A  15      11.690  25.829  29.754  0.00  0.00    +0.084 C 
ENDBRANCH 695 696
ENDBRANCH 694 695
ENDBRANCH 565 694
ENDBRANCH 561 565
ENDBRANCH 560 563
BRANCH 560 698
ATOM    698  CB  SER A  16      17.936  25.992  35.285  0.00  0.00    +0.187 C 
BRANCH 698 699
ATOM    699  OG  SER A  16      18.223  25.297  34.089  0.00  0.00    -0.393 OA
ATOM    700  H   SER A  16      18.517  25.938  33.389  0.00  0.00    +0.209 HD
ENDBRANCH 698 699
ENDBRANCH 560 698
ENDBRANCH 556 560
ENDBRANCH 555 558
BRANCH 555 701
ATOM    701  CB  LEU A  17      16.132  29.976  38.361  0.00  0.00    +0.034 C 
BRANCH 701 702
ATOM    702  CG  LEU A  17      16.243  30.699  39.694  0.00  0.00    -0.015 C 
ATOM    703  CD2 LEU A  17      14.866  31.141  40.214  0.00  0.00    +0.007 C 
ATOM    704  CD1 LEU A  17      17.180  31.883  39.572  0.00  0.00    +0.007 C 
ENDBRANCH 701 702
ENDBRANCH 555 701
ENDBRANCH 551 555
ENDBRANCH 550 553
BRANCH 550 705
ATOM    705  CB  ILE A  18      11.184  28.432  37.134  0.00  0.00    +0.015 C 
ATOM    706  CG2 ILE A  18       9.789  27.844  37.275  0.00  0.00    +0.010 C 
BRANCH 705 707
ATOM    707  CG1 ILE A  18      11.127  29.975  37.044  0.00  0.00    +0.002 C 
ATOM    708  CD1 ILE A  18      10.611  30.508  35.691  0.00  0.00    +0.004 C 
ENDBRANCH 705 707
ENDBRANCH 550 705
ENDBRANCH 546 550
ENDBRANCH 545 548
BRANCH 545 709
ATOM    709  CB  ILE A  19      12.993  23.411  37.038  0.00  0.00    +0.015 C 
ATOM    710  CG2 ILE A  19      13.201  21.922  37.337  0.00  0.00    +0.010 C 
BRANCH 709 711
ATOM    711  CG1 ILE A  19      12.000  23.597  35.865  0.00  0.00    +0.002 C 
ATOM    712  CD1 ILE A  19      12.516  23.239  34.536  0.00  0.00    +0.004 C 
ENDBRANCH 709 711
ENDBRANCH 545 709
ENDBRANCH 541 545
ENDBRANCH 540 543
BRANCH 540 713
ATOM    713  CB  ASN A  20      16.669  23.998  40.564  0.00  0.00    +0.127 C 
BRANCH 713 714
ATOM    714  CG  ASN A  20      16.938  23.002  39.454  0.00  0.00    +0.213 C 
ATOM    715  OD1 ASN A  20      16.341  21.916  39.407  0.00  0.00    -0.276 OA
ATOM    716  ND2 ASN A  20      17.840  23.339  38.542  0.00  0.00    -0.329 N 
ATOM    717 HD21 ASN A  20      18.333  24.224  38.604  0.00  0.00    +0.145 HD
ATOM    718 HD22 ASN A  20      18.049  22.699  37.783  0.00  0.00    +0.145 HD
ENDBRANCH 713 714
ENDBRANCH 540 713
ENDBRANCH 536 540
ENDBRANCH 535 538
BRANCH 535 719
ATOM    719  CB  THR A  21      13.957  28.167  43.214  0.00  0.00    +0.141 C 
ATOM    720  CG2 THR A  21      13.756  28.992  44.488  0.00  0.00    +0.040 C 
BRANCH 719 721
ATOM    721  OG1 THR A  21      15.105  28.663  42.512  0.00  0.00    -0.390 OA
ATOM    722  HG1 THR A  21      15.322  28.114  41.714  0.00  0.00    +0.210 HD
ENDBRANCH 719 721
ENDBRANCH 535 719
ENDBRANCH 531 535
ENDBRANCH 530 532
BRANCH 530 723
ATOM    723  CB  PHE A  22      12.626  25.149  47.919  0.00  0.00    +0.067 C 
BRANCH 723 724
ATOM    724  CG  PHE A  22      11.494  24.726  48.820  0.00  0.00    -0.045 A 
ATOM    725  CD2 PHE A  22      10.958  25.608  49.748  0.00  0.00    +0.004 A 
ATOM    726  CE2 PHE A  22       9.883  25.232  50.553  0.00  0.00    +0.000 A 
ATOM    727  CZ  PHE A  22       9.336  23.980  50.430  0.00  0.00    +0.000 A 
ATOM    728  CE1 PHE A  22       9.859  23.087  49.520  0.00  0.00    +0.000 A 
ATOM    729  CD1 PHE A  22      10.927  23.465  48.704  0.00  0.00    +0.004 A 
ENDBRANCH 723 724
ENDBRANCH 530 723
ENDBRANCH 526 530
ENDBRANCH 525 528
BRANCH 525 730
ATOM    730  CB  TYR A  23       9.209  28.595  44.913  0.00  0.00    +0.067 C 
BRANCH 730 731
ATOM    731  CG  TYR A  23       8.354  29.833  44.880  0.00  0.00    -0.045 A 
ATOM    732  CD2 TYR A  23       8.649  30.921  45.684  0.00  0.00    +0.007 A 
ATOM    733  CE2 TYR A  23       7.823  32.036  45.724  0.00  0.00    +0.045 A 
ATOM    734  CZ  TYR A  23       6.694  32.086  44.928  0.00  0.00    +0.117 A 
ATOM    735  CE1 TYR A  23       6.386  31.016  44.106  0.00  0.00    +0.045 A 
ATOM    736  CD1 TYR A  23       7.222  29.902  44.078  0.00  0.00    +0.007 A 
BRANCH 734 737
ATOM    737  OH  TYR A  23       5.871  33.185  44.952  0.00  0.00    -0.507 OA
ATOM    738  HH  TYR A  23       6.004  33.721  45.777  0.00  0.00    +0.292 HD
ENDBRANCH 734 737
ENDBRANCH 730 731
ENDBRANCH 525 730
ENDBRANCH 521 525
ENDBRANCH 520 522
BRANCH 520 739
ATOM    739  CB  SER A  24       5.318  26.648  49.102  0.00  0.00    +0.187 C 
BRANCH 739 740
ATOM    740  OG  SER A  24       6.317  25.830  49.689  0.00  0.00    -0.393 OA
ATOM    741  H   SER A  24       6.649  26.246  50.526  0.00  0.00    +0.209 HD
ENDBRANCH 739 740
ENDBRANCH 520 739
ENDBRANCH 516 520
ENDBRANCH 515 518
BRANCH 515 742
ATOM    742  CB  ASN A  25       3.403  30.977  46.442  0.00  0.00    +0.127 C 
BRANCH 742 743
ATOM    743  CG  ASN A  25       2.354  31.927  45.901  0.00  0.00    +0.213 C 
ATOM    744  ND2 ASN A  25       1.099  31.517  45.875  0.00  0.00    -0.329 N 
ATOM    745 HD21 ASN A  25       0.821  30.612  46.240  0.00  0.00    +0.145 HD
ATOM    746 HD22 ASN A  25       0.385  32.146  45.521  0.00  0.00    +0.145 HD
ATOM    747  OD1 ASN A  25       2.662  33.074  45.540  0.00  0.00    -0.276 OA
ENDBRANCH 742 743
ENDBRANCH 515 742
ENDBRANCH 511 515
ENDBRANCH 510 512
BRANCH 510 748
ATOM    748  CB  LYS A  26       3.213  26.108  42.565  0.00  0.00    +0.032 C 
BRANCH 748 749
ATOM    749  CG  LYS A  26       4.554  25.594  43.131  0.00  0.00    +0.000 C 
BRANCH 749 750
ATOM    750  CD  LYS A  26       4.719  24.097  42.985  0.00  0.00    -0.019 C 
BRANCH 750 751
ATOM    751  CE  LYS A  26       6.067  23.591  43.489  0.00  0.00    -0.086 C 
BRANCH 751 752
ATOM    752  NZ  LYS A  26       7.168  23.845  42.522  0.00  0.00    +0.378 N 
ATOM    753  HZ1 LYS A  26       8.008  23.362  42.827  0.00  0.00    -0.090 HD
ATOM    754  HZ2 LYS A  26       7.367  24.839  42.472  0.00  0.00    -0.090 HD
ATOM    755  HZ3 LYS A  26       6.916  23.508  41.599  0.00  0.00    -0.090 HD
ENDBRANCH 751 752
ENDBRANCH 750 751
ENDBRANCH 749 750
ENDBRANCH 748 749
ENDBRANCH 510 748
ENDBRANCH 506 510
ENDBRANCH 505 507
BRANCH 505 756
ATOM    756  CB  GLU A  27      -1.735  28.910  42.863  0.00  0.00    +0.043 C 
BRANCH 756 757
ATOM    757  CG  GLU A  27      -1.604  30.218  43.623  0.00  0.00    +0.127 C 
BRANCH 757 758
ATOM    758  CD  GLU A  27      -2.644  30.395  44.708  0.00  0.00    +0.356 C 
ATOM    759  OE2 GLU A  27      -2.960  29.416  45.415  0.00  0.00    -0.246 OA
ATOM    760  OE1 GLU A  27      -3.119  31.537  44.873  0.00  0.00    -0.246 OA
ENDBRANCH 757 758
ENDBRANCH 756 757
ENDBRANCH 505 756
ENDBRANCH 501 505
ENDBRANCH 500 502
BRANCH 500 761
ATOM    761  CB  ILE A  28       1.942  32.798  40.670  0.00  0.00    +0.015 C 
ATOM    762  CG2 ILE A  28       1.764  33.348  42.084  0.00  0.00    +0.010 C 
BRANCH 761 763
ATOM    763  CG1 ILE A  28       3.242  31.954  40.539  0.00  0.00    +0.002 C 
ATOM    764  CD1 ILE A  28       4.455  32.651  40.361  0.00  0.00    +0.004 C 
ENDBRANCH 761 763
ENDBRANCH 500 761
ENDBRANCH 496 500
ENDBRANCH 495 497
BRANCH 495 765
ATOM    765  CB  PHE A  29       1.666  28.566  36.725  0.00  0.00    +0.067 C 
BRANCH 765 766
ATOM    766  CG  PHE A  29       0.538  27.568  36.880  0.00  0.00    -0.045 A 
ATOM    767  CD2 PHE A  29       0.156  27.116  38.135  0.00  0.00    +0.004 A 
ATOM    768  CE2 PHE A  29      -0.947  26.277  38.293  0.00  0.00    +0.000 A 
ATOM    769  CZ  PHE A  29      -1.695  25.906  37.202  0.00  0.00    +0.000 A 
ATOM    770  CE1 PHE A  29      -1.362  26.379  35.954  0.00  0.00    +0.000 A 
ATOM    771  CD1 PHE A  29      -0.236  27.191  35.786  0.00  0.00    +0.004 A 
ENDBRANCH 765 766
ENDBRANCH 495 765
ENDBRANCH 491 495
ENDBRANCH 490 492
BRANCH 490 772
ATOM    772  CB  LEU A  30      -3.632  29.346  36.962  0.00  0.00    +0.034 C 
BRANCH 772 773
ATOM    773  CG  LEU A  30      -5.001  29.237  36.309  0.00  0.00    -0.015 C 
ATOM    774  CD2 LEU A  30      -5.952  28.490  37.202  0.00  0.00    +0.007 C 
ATOM    775  CD1 LEU A  30      -4.914  28.599  34.935  0.00  0.00    +0.007 C 
ENDBRANCH 772 773
ENDBRANCH 490 772
ENDBRANCH 486 490
ENDBRANCH 485 487
BRANCH 485 776
ATOM    776  CB  ARG A  31      -2.405  34.687  37.731  0.00  0.00    +0.035 C 
BRANCH 776 777
ATOM    777  CG  ARG A  31      -2.231  36.198  37.603  0.00  0.00    +0.039 C 
BRANCH 777 778
ATOM    778  CD  ARG A  31      -1.506  36.736  38.849  0.00  0.00    +0.196 C 
BRANCH 778 779
ATOM    779  NE  ARG A  31      -0.054  36.492  38.825  0.00  0.00    -0.279 N 
ATOM    780  CZ  ARG A  31       0.764  36.522  39.884  0.00  0.00    +0.341 C 
ATOM    781  NH2 ARG A  31       0.285  36.759  41.104  0.00  0.00    -0.292 N 
ATOM    782 HH21 ARG A  31       0.926  36.780  41.891  0.00  0.00    +0.255 HD
ATOM    783 HH22 ARG A  31      -0.694  36.954  41.280  0.00  0.00    +0.255 HD
ATOM    784  NH1 ARG A  31       2.068  36.304  39.732  0.00  0.00    -0.292 N 
ATOM    785 HH11 ARG A  31       2.685  36.313  40.537  0.00  0.00    +0.255 HD
ATOM    786 HH12 ARG A  31       2.453  36.106  38.814  0.00  0.00    +0.255 HD
ATOM    787  HE  ARG A  31       0.361  36.302  37.919  0.00  0.00    +0.258 HD
ENDBRANCH 778 779
ENDBRANCH 777 778
ENDBRANCH 776 777
ENDBRANCH 485 776
ENDBRANCH 481 485
ENDBRANCH 480 482
BRANCH 480 788
ATOM    788  CB  GLU A  32       1.526  33.873  34.372  0.00  0.00    +0.043 C 
BRANCH 788 789
ATOM    789  CG  GLU A  32       2.149  34.517  35.614  0.00  0.00    +0.127 C 
BRANCH 789 790
ATOM    790  CD  GLU A  32       2.067  36.032  35.640  0.00  0.00    +0.356 C 
ATOM    791  OE2 GLU A  32       1.697  36.588  36.693  0.00  0.00    -0.246 OA
ATOM    792  OE1 GLU A  32       2.299  36.659  34.586  0.00  0.00    -0.246 OA
ENDBRANCH 789 790
ENDBRANCH 788 789
ENDBRANCH 480 788
ENDBRANCH 476 480
ENDBRANCH 475 477
BRANCH 475 793
ATOM    793  CB  LEU A  33      -1.546  30.458  31.552  0.00  0.00    +0.034 C 
BRANCH 793 794
ATOM    794  CG  LEU A  33      -0.241  29.683  31.778  0.00  0.00    -0.015 C 
ATOM    795  CD2 LEU A  33      -0.520  28.256  31.995  0.00  0.00    +0.007 C 
ATOM    796  CD1 LEU A  33       0.735  29.904  30.637  0.00  0.00    +0.007 C 
ENDBRANCH 793 794
ENDBRANCH 475 793
ENDBRANCH 471 475
ENDBRANCH 470 472
BRANCH 470 797
ATOM    797  CB  ILE A  34      -5.813  33.539  32.842  0.00  0.00    +0.015 C 
ATOM    798  CG2 ILE A  34      -6.999  34.500  32.616  0.00  0.00    +0.010 C 
BRANCH 797 799
ATOM    799  CG1 ILE A  34      -6.318  32.091  33.055  0.00  0.00    +0.002 C 
ATOM    800  CD1 ILE A  34      -7.053  31.877  34.340  0.00  0.00    +0.004 C 
ENDBRANCH 797 799
ENDBRANCH 470 797
ENDBRANCH 466 470
ENDBRANCH 465 467
BRANCH 465 801
ATOM    801  CB  SER A  35      -2.177  37.633  32.378  0.00  0.00    +0.187 C 
BRANCH 801 802
ATOM    802  OG  SER A  35      -1.809  38.942  31.989  0.00  0.00    -0.393 OA
ATOM    803  H   SER A  35      -0.974  38.914  31.451  0.00  0.00    +0.209 HD
ENDBRANCH 801 802
ENDBRANCH 465 801
ENDBRANCH 461 465
ENDBRANCH 460 462
BRANCH 460 804
ATOM    804  CB  ASN A  36      -0.220  35.000  28.064  0.00  0.00    +0.127 C 
BRANCH 804 805
ATOM    805  CG  ASN A  36       1.089  35.483  28.670  0.00  0.00    +0.213 C 
ATOM    806  OD1 ASN A  36       1.152  36.495  29.365  0.00  0.00    -0.276 OA
ATOM    807  ND2 ASN A  36       2.133  34.729  28.482  0.00  0.00    -0.329 N 
ATOM    808 HD21 ASN A  36       3.033  35.009  28.859  0.00  0.00    +0.145 HD
ATOM    809 HD22 ASN A  36       2.045  33.850  27.983  0.00  0.00    +0.145 HD
ENDBRANCH 804 805
ENDBRANCH 460 804
ENDBRANCH 456 460
ENDBRANCH 455 457
BRANCH 455 810
ATOM    810  CB  SER A  37      -5.393  33.502  27.380  0.00  0.00    +0.187 C 
BRANCH 810 811
ATOM    811  OG  SER A  37      -4.802  32.215  27.352  0.00  0.00    -0.393 OA
ATOM    812  H   SER A  37      -4.442  32.022  26.448  0.00  0.00    +0.209 HD
ENDBRANCH 810 811
ENDBRANCH 455 810
ENDBRANCH 451 455
ENDBRANCH 450 452
BRANCH 450 813
ATOM    813  CB  SER A  38      -6.608  38.420  28.952  0.00  0.00    +0.187 C 
BRANCH 813 814
ATOM    814  OG  SER A  38      -7.349  39.620  28.809  0.00  0.00    -0.393 OA
ATOM    815  H   SER A  38      -6.749  40.406  28.898  0.00  0.00    +0.209 HD
ENDBRANCH 813 814
ENDBRANCH 450 813
ENDBRANCH 446 450
ENDBRANCH 445 447
BRANCH 445 816
ATOM    816  CB  ASP A  39      -2.158  39.909  26.197  0.00  0.00    +0.156 C 
BRANCH 816 817
ATOM    817  CG  ASP A  39      -1.866  40.589  27.541  0.00  0.00    +0.358 C 
ATOM    818  OD2 ASP A  39      -2.784  41.232  28.097  0.00  0.00    -0.246 OA
ATOM    819  OD1 ASP A  39      -0.727  40.466  28.029  0.00  0.00    -0.246 OA
ENDBRANCH 816 817
ENDBRANCH 445 816
ENDBRANCH 441 445
ENDBRANCH 439 442
ENDBRANCH 435 439
ENDBRANCH 434 436
BRANCH 434 820
ATOM    820  CB  LEU A  41      -8.632  37.649  23.795  0.00  0.00    +0.034 C 
BRANCH 820 821
ATOM    821  CG  LEU A  41      -8.778  36.121  23.834  0.00  0.00    -0.015 C 
ATOM    822  CD2 LEU A  41      -9.235  35.642  25.193  0.00  0.00    +0.007 C 
ATOM    823  CD1 LEU A  41      -9.678  35.602  22.740  0.00  0.00    +0.007 C 
ENDBRANCH 820 821
ENDBRANCH 434 820
ENDBRANCH 430 434
ENDBRANCH 429 431
BRANCH 429 824
ATOM    824  CB  ASP A  42      -6.429  42.677  24.042  0.00  0.00    +0.156 C 
BRANCH 824 825
ATOM    825  CG  ASP A  42      -7.113  42.799  25.387  0.00  0.00    +0.358 C 
ATOM    826  OD2 ASP A  42      -6.419  43.099  26.367  0.00  0.00    -0.246 OA
ATOM    827  OD1 ASP A  42      -8.366  42.726  25.427  0.00  0.00    -0.246 OA
ENDBRANCH 824 825
ENDBRANCH 429 824
ENDBRANCH 425 429
ENDBRANCH 424 426
BRANCH 424 828
ATOM    828  CB  LYS A  43      -3.474  41.023  19.917  0.00  0.00    +0.032 C 
BRANCH 828 829
ATOM    829  CG  LYS A  43      -2.379  41.560  20.861  0.00  0.00    +0.000 C 
BRANCH 829 830
ATOM    830  CD  LYS A  43      -1.231  40.535  20.876  0.00  0.00    -0.019 C 
BRANCH 830 831
ATOM    831  CE  LYS A  43      -0.148  40.810  21.865  0.00  0.00    -0.086 C 
BRANCH 831 832
ATOM    832  NZ  LYS A  43       0.920  39.794  21.760  0.00  0.00    +0.378 N 
ATOM    833  HZ1 LYS A  43       1.607  39.928  22.495  0.00  0.00    -0.090 HD
ATOM    834  HZ2 LYS A  43       0.522  38.865  21.844  0.00  0.00    -0.090 HD
ATOM    835  HZ3 LYS A  43       1.384  39.877  20.861  0.00  0.00    -0.090 HD
ENDBRANCH 831 832
ENDBRANCH 830 831
ENDBRANCH 829 830
ENDBRANCH 828 829
ENDBRANCH 424 828
ENDBRANCH 420 424
ENDBRANCH 419 421
BRANCH 419 836
ATOM    836  CB  ILE A  44      -7.604  38.424  17.514  0.00  0.00    +0.015 C 
ATOM    837  CG2 ILE A  44      -8.481  37.988  18.667  0.00  0.00    +0.010 C 
BRANCH 836 838
ATOM    838  CG1 ILE A  44      -8.308  38.124  16.144  0.00  0.00    +0.002 C 
ATOM    839  CD1 ILE A  44      -7.452  38.188  14.972  0.00  0.00    +0.004 C 
ENDBRANCH 836 838
ENDBRANCH 419 836
ENDBRANCH 415 419
ENDBRANCH   1 416
BRANCH   1 840
ATOM    840  CB  ARG A  45     -10.728  42.163  20.171  0.00  0.00    +0.035 C 
BRANCH 840 841
ATOM    841  CG  ARG A  45     -11.995  42.989  20.185  0.00  0.00    +0.039 C 
BRANCH 841 842
ATOM    842  CD  ARG A  45     -12.725  42.888  21.488  0.00  0.00    +0.196 C 
BRANCH 842 843
ATOM    843  NE  ARG A  45     -11.996  43.550  22.566  0.00  0.00    -0.279 N 
ATOM    844  CZ  ARG A  45     -12.473  43.725  23.792  0.00  0.00    +0.341 C 
ATOM    845  NH2 ARG A  45     -11.740  44.338  24.714  0.00  0.00    -0.292 N 
ATOM    846 HH21 ARG A  45     -12.102  44.473  25.653  0.00  0.00    +0.255 HD
ATOM    847 HH22 ARG A  45     -10.817  44.691  24.483  0.00  0.00    +0.255 HD
ATOM    848  NH1 ARG A  45     -13.688  43.287  24.110  0.00  0.00    -0.292 N 
ATOM    849 HH11 ARG A  45     -14.029  43.414  25.058  0.00  0.00    +0.255 HD
ATOM    850 HH12 ARG A  45     -14.278  42.792  23.450  0.00  0.00    +0.255 HD
ATOM    851  HE  ARG A  45     -11.073  43.921  22.363  0.00  0.00    +0.258 HD
ENDBRANCH 842 843
ENDBRANCH 841 842
ENDBRANCH 840 841
ENDBRANCH   1 840
TORSDOF 364
REMARK  Name = /Users/mlugowska/PhD/ML_residence_time_prediction/protein_files/5J20_protein.pdb
REMARK  961 active torsions:
REMARK  status: ('A' for Active; 'I' for Inactive)
REMARK    1  A    between atoms: _2  and  _3
REMARK    2  A    between atoms: _2  and  _5
REMARK    3  A    between atoms: _10  and  _11
REMARK    4  A    between atoms: _11  and  _12
REMARK    5  A    between atoms: _11  and  _14
REMARK    6  A    between atoms: _14  and  _15
REMARK    7  A    between atoms: _14  and  _16
REMARK    8  A    between atoms: _26  and  _27
REMARK    9  A    between atoms: _27  and  _28
REMARK   10  A    between atoms: _27  and  _30
REMARK   11  A    between atoms: _30  and  _31
REMARK   12  A    between atoms: _31  and  _32
REMARK   13  A    between atoms: _41  and  _42
REMARK   14  A    between atoms: _42  and  _43
REMARK   15  A    between atoms: _42  and  _45
REMARK   16  A    between atoms: _45  and  _46
REMARK   17  A    between atoms: _45  and  _47
REMARK   18  A    between atoms: _55  and  _56
REMARK   19  A    between atoms: _56  and  _57
REMARK   20  A    between atoms: _56  and  _59
REMARK   21  A    between atoms: _59  and  _60
REMARK   22  A    between atoms: _75  and  _76
REMARK   23  A    between atoms: _76  and  _77
REMARK   24  A    between atoms: _76  and  _79
REMARK   25  A    between atoms: _85  and  _86
REMARK   26  A    between atoms: _86  and  _87
REMARK   27  A    between atoms: _86  and  _89
REMARK   28  A    between atoms: _89  and  _90
REMARK   29  A    between atoms: _105  and  _106
REMARK   30  A    between atoms: _106  and  _107
REMARK   31  A    between atoms: _106  and  _109
REMARK   32  A    between atoms: _109  and  _110
REMARK   33  A    between atoms: _110  and  _111
REMARK   34  A    between atoms: _122  and  _123
REMARK   35  A    between atoms: _123  and  _124
REMARK   36  A    between atoms: _123  and  _126
REMARK   37  A    between atoms: _132  and  _133
REMARK   38  A    between atoms: _133  and  _134
REMARK   39  A    between atoms: _133  and  _136
REMARK   40  A    between atoms: _136  and  _137
REMARK   41  A    between atoms: _137  and  _138
REMARK   42  A    between atoms: _147  and  _148
REMARK   43  A    between atoms: _148  and  _149
REMARK   44  A    between atoms: _148  and  _151
REMARK   45  A    between atoms: _151  and  _152
REMARK   46  A    between atoms: _151  and  _153
REMARK   47  A    between atoms: _152  and  _154
REMARK   48  A    between atoms: _166  and  _167
REMARK   49  A    between atoms: _167  and  _168
REMARK   50  A    between atoms: _167  and  _170
REMARK   51  A    between atoms: _176  and  _177
REMARK   52  A    between atoms: _177  and  _178
REMARK   53  A    between atoms: _177  and  _180
REMARK   54  A    between atoms: _180  and  _181
REMARK   55  A    between atoms: _181  and  _182
REMARK   56  A    between atoms: _193  and  _194
REMARK   57  A    between atoms: _194  and  _195
REMARK   58  A    between atoms: _194  and  _197
REMARK   59  A    between atoms: _197  and  _198
REMARK   60  A    between atoms: _198  and  _199
REMARK   61  A    between atoms: _198  and  _200
REMARK   62  A    between atoms: _212  and  _213
REMARK   63  A    between atoms: _213  and  _214
REMARK   64  A    between atoms: _213  and  _216
REMARK   65  A    between atoms: _216  and  _217
REMARK   66  A    between atoms: _217  and  _218
REMARK   67  A    between atoms: _218  and  _219
REMARK   68  A    between atoms: _229  and  _230
REMARK   69  A    between atoms: _230  and  _231
REMARK   70  A    between atoms: _230  and  _233
REMARK   71  A    between atoms: _233  and  _234
REMARK   72  A    between atoms: _240  and  _241
REMARK   73  A    between atoms: _241  and  _242
REMARK   74  A    between atoms: _241  and  _244
REMARK   75  A    between atoms: _244  and  _245
REMARK   76  A    between atoms: _245  and  _246
REMARK   77  A    between atoms: _245  and  _247
REMARK   78  A    between atoms: _259  and  _260
REMARK   79  A    between atoms: _260  and  _261
REMARK   80  A    between atoms: _260  and  _263
REMARK   81  A    between atoms: _263  and  _264
REMARK   82  A    between atoms: _263  and  _265
REMARK   83  A    between atoms: _264  and  _266
REMARK   84  A    between atoms: _278  and  _279
REMARK   85  A    between atoms: _279  and  _280
REMARK   86  A    between atoms: _279  and  _282
REMARK   87  A    between atoms: _282  and  _283
REMARK   88  A    between atoms: _282  and  _284
REMARK   89  A    between atoms: _283  and  _285
REMARK   90  A    between atoms: _297  and  _298
REMARK   91  A    between atoms: _298  and  _299
REMARK   92  A    between atoms: _298  and  _301
REMARK   93  A    between atoms: _301  and  _302
REMARK   94  A    between atoms: _311  and  _312
REMARK   95  A    between atoms: _312  and  _313
REMARK   96  A    between atoms: _312  and  _315
REMARK   97  A    between atoms: _315  and  _316
REMARK   98  A    between atoms: _315  and  _317
REMARK   99  A    between atoms: _325  and  _326
REMARK  100  A    between atoms: _326  and  _327
REMARK  101  A    between atoms: _326  and  _329
REMARK  102  A    between atoms: _329  and  _330
REMARK  103  A    between atoms: _345  and  _346
REMARK  104  A    between atoms: _346  and  _347
REMARK  105  A    between atoms: _346  and  _349
REMARK  106  A    between atoms: _349  and  _350
REMARK  107  A    between atoms: _355  and  _356
REMARK  108  A    between atoms: _366  and  _367
REMARK  109  A    between atoms: _367  and  _368
REMARK  110  A    between atoms: _367  and  _370
REMARK  111  A    between atoms: _370  and  _371
REMARK  112  A    between atoms: _377  and  _378
REMARK  113  A    between atoms: _378  and  _379
REMARK  114  A    between atoms: _378  and  _381
REMARK  115  A    between atoms: _381  and  _382
REMARK  116  A    between atoms: _391  and  _392
REMARK  117  A    between atoms: _392  and  _393
REMARK  118  A    between atoms: _392  and  _395
REMARK  119  A    between atoms: _395  and  _396
REMARK  120  A    between atoms: _396  and  _397
REMARK  121  A    between atoms: _397  and  _398
REMARK  122  A    between atoms: _398  and  _399
REMARK  123  A    between atoms: _413  and  _414
REMARK  124  A    between atoms: _414  and  _415
REMARK  125  A    between atoms: _414  and  _417
REMARK  126  A    between atoms: _417  and  _418
REMARK  127  A    between atoms: _418  and  _419
REMARK  128  A    between atoms: _428  and  _429
REMARK  129  A    between atoms: _429  and  _430
REMARK  130  A    between atoms: _429  and  _432
REMARK  131  A    between atoms: _432  and  _433
REMARK  132  A    between atoms: _432  and  _434
REMARK  133  A    between atoms: _433  and  _435
REMARK  134  A    between atoms: _447  and  _448
REMARK  135  A    between atoms: _448  and  _449
REMARK  136  A    between atoms: _448  and  _451
REMARK  137  A    between atoms: _451  and  _452
REMARK  138  A    between atoms: _467  and  _468
REMARK  139  A    between atoms: _468  and  _469
REMARK  140  A    between atoms: _468  and  _471
REMARK  141  A    between atoms: _471  and  _472
REMARK  142  A    between atoms: _472  and  _473
REMARK  143  A    between atoms: _472  and  _474
REMARK  144  A    between atoms: _486  and  _487
REMARK  145  A    between atoms: _487  and  _488
REMARK  146  A    between atoms: _487  and  _490
REMARK  147  A    between atoms: _490  and  _491
REMARK  148  A    between atoms: _491  and  _492
REMARK  149  A    between atoms: _492  and  _493
REMARK  150  A    between atoms: _510  and  _511
REMARK  151  A    between atoms: _511  and  _512
REMARK  152  A    between atoms: _511  and  _514
REMARK  153  A    between atoms: _514  and  _515
REMARK  154  A    between atoms: _515  and  _516
REMARK  155  A    between atoms: _525  and  _526
REMARK  156  A    between atoms: _526  and  _527
REMARK  157  A    between atoms: _526  and  _529
REMARK  158  A    between atoms: _529  and  _530
REMARK  159  A    between atoms: _530  and  _531
REMARK  160  A    between atoms: _530  and  _532
REMARK  161  A    between atoms: _544  and  _545
REMARK  162  A    between atoms: _545  and  _546
REMARK  163  A    between atoms: _545  and  _548
REMARK  164  A    between atoms: _548  and  _549
REMARK  165  A    between atoms: _548  and  _550
REMARK  166  A    between atoms: _549  and  _551
REMARK  167  A    between atoms: _563  and  _564
REMARK  168  A    between atoms: _564  and  _565
REMARK  169  A    between atoms: _564  and  _567
REMARK  170  A    between atoms: _567  and  _568
REMARK  171  A    between atoms: _574  and  _575
REMARK  172  A    between atoms: _575  and  _576
REMARK  173  A    between atoms: _575  and  _578
REMARK  174  A    between atoms: _578  and  _579
REMARK  175  A    between atoms: _588  and  _589
REMARK  176  A    between atoms: _589  and  _590
REMARK  177  A    between atoms: _589  and  _592
REMARK  178  A    between atoms: _592  and  _593
REMARK  179  A    between atoms: _599  and  _600
REMARK  180  A    between atoms: _600  and  _601
REMARK  181  A    between atoms: _600  and  _603
REMARK  182  A    between atoms: _603  and  _604
REMARK  183  A    between atoms: _610  and  _611
REMARK  184  A    between atoms: _611  and  _612
REMARK  185  A    between atoms: _611  and  _614
REMARK  186  A    between atoms: _614  and  _615
REMARK  187  A    between atoms: _622  and  _623
REMARK  188  A    between atoms: _623  and  _624
REMARK  189  A    between atoms: _623  and  _626
REMARK  190  A    between atoms: _632  and  _633
REMARK  191  A    between atoms: _633  and  _634
REMARK  192  A    between atoms: _633  and  _636
REMARK  193  A    between atoms: _636  and  _637
REMARK  194  A    between atoms: _637  and  _638
REMARK  195  A    between atoms: _637  and  _639
REMARK  196  A    between atoms: _651  and  _652
REMARK  197  A    between atoms: _652  and  _653
REMARK  198  A    between atoms: _652  and  _655
REMARK  199  A    between atoms: _655  and  _656
REMARK  200  A    between atoms: _663  and  _664
REMARK  201  A    between atoms: _664  and  _665
REMARK  202  A    between atoms: _664  and  _667
REMARK  203  A    between atoms: _667  and  _668
REMARK  204  A    between atoms: _668  and  _669
REMARK  205  A    between atoms: _669  and  _670
REMARK  206  A    between atoms: _670  and  _671
REMARK  207  A    between atoms: _685  and  _686
REMARK  208  A    between atoms: _686  and  _687
REMARK  209  A    between atoms: _686  and  _689
REMARK  210  A    between atoms: _689  and  _690
REMARK  211  A    between atoms: _689  and  _691
REMARK  212  A    between atoms: _690  and  _692
REMARK  213  A    between atoms: _704  and  _705
REMARK  214  A    between atoms: _705  and  _706
REMARK  215  A    between atoms: _705  and  _708
REMARK  216  A    between atoms: _708  and  _709
REMARK  217  A    between atoms: _709  and  _710
REMARK  218  A    between atoms: _710  and  _711
REMARK  219  A    between atoms: _728  and  _729
REMARK  220  A    between atoms: _729  and  _730
REMARK  221  A    between atoms: _729  and  _732
REMARK  222  A    between atoms: _732  and  _733
REMARK  223  A    between atoms: _738  and  _739
REMARK  224  A    between atoms: _749  and  _750
REMARK  225  A    between atoms: _750  and  _751
REMARK  226  A    between atoms: _750  and  _753
REMARK  227  A    between atoms: _753  and  _754
REMARK  228  A    between atoms: _754  and  _755
REMARK  229  A    between atoms: _764  and  _765
REMARK  230  A    between atoms: _765  and  _766
REMARK  231  A    between atoms: _765  and  _768
REMARK  232  A    between atoms: _772  and  _773
REMARK  233  A    between atoms: _773  and  _774
REMARK  234  A    between atoms: _773  and  _776
REMARK  235  A    between atoms: _776  and  _777
REMARK  236  A    between atoms: _777  and  _778
REMARK  237  A    between atoms: _777  and  _779
REMARK  238  A    between atoms: _791  and  _792
REMARK  239  A    between atoms: _792  and  _793
REMARK  240  A    between atoms: _792  and  _795
REMARK  241  A    between atoms: _795  and  _796
REMARK  242  A    between atoms: _795  and  _797
REMARK  243  A    between atoms: _805  and  _806
REMARK  244  A    between atoms: _806  and  _807
REMARK  245  A    between atoms: _806  and  _809
REMARK  246  A    between atoms: _809  and  _810
REMARK  247  A    between atoms: _818  and  _819
REMARK  248  A    between atoms: _831  and  _832
REMARK  249  A    between atoms: _832  and  _833
REMARK  250  A    between atoms: _832  and  _835
REMARK  251  A    between atoms: _835  and  _836
REMARK  252  A    between atoms: _842  and  _843
REMARK  253  A    between atoms: _843  and  _844
REMARK  254  A    between atoms: _843  and  _846
REMARK  255  A    between atoms: _846  and  _847
REMARK  256  A    between atoms: _847  and  _848
REMARK  257  A    between atoms: _848  and  _849
REMARK  258  A    between atoms: _849  and  _850
REMARK  259  A    between atoms: _864  and  _865
REMARK  260  A    between atoms: _865  and  _866
REMARK  261  A    between atoms: _865  and  _868
REMARK  262  A    between atoms: _868  and  _869
REMARK  263  A    between atoms: _869  and  _870
REMARK  264  A    between atoms: _869  and  _871
REMARK  265  A    between atoms: _883  and  _884
REMARK  266  A    between atoms: _884  and  _885
REMARK  267  A    between atoms: _884  and  _887
REMARK  268  A    between atoms: _887  and  _888
REMARK  269  A    between atoms: _895  and  _896
REMARK  270  A    between atoms: _896  and  _897
REMARK  271  A    between atoms: _896  and  _899
REMARK  272  A    between atoms: _899  and  _900
REMARK  273  A    between atoms: _906  and  _907
REMARK  274  A    between atoms: _907  and  _908
REMARK  275  A    between atoms: _913  and  _914
REMARK  276  A    between atoms: _914  and  _915
REMARK  277  A    between atoms: _914  and  _917
REMARK  278  A    between atoms: _917  and  _918
REMARK  279  A    between atoms: _918  and  _919
REMARK  280  A    between atoms: _919  and  _920
REMARK  281  A    between atoms: _920  and  _921
REMARK  282  A    between atoms: _935  and  _936
REMARK  283  A    between atoms: _936  and  _937
REMARK  284  A    between atoms: _936  and  _939
REMARK  285  A    between atoms: _939  and  _940
REMARK  286  A    between atoms: _940  and  _941
REMARK  287  A    between atoms: _950  and  _951
REMARK  288  A    between atoms: _951  and  _952
REMARK  289  A    between atoms: _951  and  _954
REMARK  290  A    between atoms: _954  and  _955
REMARK  291  A    between atoms: _955  and  _956
REMARK  292  A    between atoms: _955  and  _957
REMARK  293  A    between atoms: _969  and  _970
REMARK  294  A    between atoms: _970  and  _971
REMARK  295  A    between atoms: _970  and  _973
REMARK  296  A    between atoms: _973  and  _974
REMARK  297  A    between atoms: _986  and  _987
REMARK  298  A    between atoms: _987  and  _988
REMARK  299  A    between atoms: _987  and  _990
REMARK  300  A    between atoms: _990  and  _991
REMARK  301  A    between atoms: _990  and  _992
REMARK  302  A    between atoms: _991  and  _993
REMARK  303  A    between atoms: _1005  and  _1006
REMARK  304  A    between atoms: _1006  and  _1007
REMARK  305  A    between atoms: _1006  and  _1009
REMARK  306  A    between atoms: _1009  and  _1010
REMARK  307  A    between atoms: _1019  and  _1020
REMARK  308  A    between atoms: _1020  and  _1021
REMARK  309  A    between atoms: _1020  and  _1023
REMARK  310  A    between atoms: _1023  and  _1024
REMARK  311  A    between atoms: _1024  and  _1025
REMARK  312  A    between atoms: _1024  and  _1026
REMARK  313  A    between atoms: _1038  and  _1039
REMARK  314  A    between atoms: _1039  and  _1040
REMARK  315  A    between atoms: _1039  and  _1042
REMARK  316  A    between atoms: _1042  and  _1043
REMARK  317  A    between atoms: _1042  and  _1044
REMARK  318  A    between atoms: _1043  and  _1045
REMARK  319  A    between atoms: _1058  and  _1059
REMARK  320  A    between atoms: _1071  and  _1072
REMARK  321  A    between atoms: _1072  and  _1073
REMARK  322  A    between atoms: _1072  and  _1075
REMARK  323  A    between atoms: _1075  and  _1076
REMARK  324  A    between atoms: _1085  and  _1086
REMARK  325  A    between atoms: _1086  and  _1087
REMARK  326  A    between atoms: _1086  and  _1089
REMARK  327  A    between atoms: _1089  and  _1090
REMARK  328  A    between atoms: _1090  and  _1091
REMARK  329  A    between atoms: _1091  and  _1092
REMARK  330  A    between atoms: _1092  and  _1093
REMARK  331  A    between atoms: _1107  and  _1108
REMARK  332  A    between atoms: _1108  and  _1109
REMARK  333  A    between atoms: _1108  and  _1111
REMARK  334  A    between atoms: _1111  and  _1112
REMARK  335  A    between atoms: _1112  and  _1113
REMARK  336  A    between atoms: _1124  and  _1125
REMARK  337  A    between atoms: _1125  and  _1126
REMARK  338  A    between atoms: _1125  and  _1128
REMARK  339  A    between atoms: _1128  and  _1129
REMARK  340  A    between atoms: _1136  and  _1137
REMARK  341  A    between atoms: _1137  and  _1138
REMARK  342  A    between atoms: _1137  and  _1140
REMARK  343  A    between atoms: _1140  and  _1141
REMARK  344  A    between atoms: _1141  and  _1142
REMARK  345  A    between atoms: _1142  and  _1143
REMARK  346  A    between atoms: _1160  and  _1161
REMARK  347  A    between atoms: _1161  and  _1162
REMARK  348  A    between atoms: _1161  and  _1164
REMARK  349  A    between atoms: _1164  and  _1165
REMARK  350  A    between atoms: _1164  and  _1166
REMARK  351  A    between atoms: _1174  and  _1175
REMARK  352  A    between atoms: _1175  and  _1176
REMARK  353  A    between atoms: _1175  and  _1178
REMARK  354  A    between atoms: _1178  and  _1179
REMARK  355  A    between atoms: _1179  and  _1180
REMARK  356  A    between atoms: _1179  and  _1181
REMARK  357  A    between atoms: _1193  and  _1194
REMARK  358  A    between atoms: _1194  and  _1195
REMARK  359  A    between atoms: _1194  and  _1197
REMARK  360  A    between atoms: _1197  and  _1198
REMARK  361  A    between atoms: _1197  and  _1199
REMARK  362  A    between atoms: _1207  and  _1208
REMARK  363  A    between atoms: _1208  and  _1209
REMARK  364  A    between atoms: _1208  and  _1211
REMARK  365  A    between atoms: _1211  and  _1212
REMARK  366  A    between atoms: _1211  and  _1213
REMARK  367  A    between atoms: _1212  and  _1214
REMARK  368  A    between atoms: _1226  and  _1227
REMARK  369  A    between atoms: _1227  and  _1228
REMARK  370  A    between atoms: _1227  and  _1230
REMARK  371  A    between atoms: _1230  and  _1231
REMARK  372  A    between atoms: _1230  and  _1232
REMARK  373  A    between atoms: _1242  and  _1243
REMARK  374  A    between atoms: _1243  and  _1244
REMARK  375  A    between atoms: _1243  and  _1246
REMARK  376  A    between atoms: _1246  and  _1247
REMARK  377  A    between atoms: _1254  and  _1255
REMARK  378  A    between atoms: _1255  and  _1256
REMARK  379  A    between atoms: _1255  and  _1258
REMARK  380  A    between atoms: _1258  and  _1259
REMARK  381  A    between atoms: _1258  and  _1260
REMARK  382  A    between atoms: _1268  and  _1269
REMARK  383  A    between atoms: _1269  and  _1270
REMARK  384  A    between atoms: _1275  and  _1276
REMARK  385  A    between atoms: _1276  and  _1277
REMARK  386  A    between atoms: _1276  and  _1279
REMARK  387  A    between atoms: _1279  and  _1280
REMARK  388  A    between atoms: _1279  and  _1281
REMARK  389  A    between atoms: _1280  and  _1282
REMARK  390  A    between atoms: _1294  and  _1295
REMARK  391  A    between atoms: _1295  and  _1296
REMARK  392  A    between atoms: _1301  and  _1302
REMARK  393  A    between atoms: _1302  and  _1303
REMARK  394  A    between atoms: _1302  and  _1305
REMARK  395  A    between atoms: _1305  and  _1306
REMARK  396  A    between atoms: _1306  and  _1307
REMARK  397  A    between atoms: _1307  and  _1308
REMARK  398  A    between atoms: _1318  and  _1319
REMARK  399  A    between atoms: _1319  and  _1320
REMARK  400  A    between atoms: _1319  and  _1322
REMARK  401  A    between atoms: _1322  and  _1323
REMARK  402  A    between atoms: _1322  and  _1324
REMARK  403  A    between atoms: _1332  and  _1333
REMARK  404  A    between atoms: _1333  and  _1334
REMARK  405  A    between atoms: _1333  and  _1336
REMARK  406  A    between atoms: _1336  and  _1337
REMARK  407  A    between atoms: _1337  and  _1338
REMARK  408  A    between atoms: _1338  and  _1339
REMARK  409  A    between atoms: _1339  and  _1340
REMARK  410  A    between atoms: _1354  and  _1355
REMARK  411  A    between atoms: _1355  and  _1356
REMARK  412  A    between atoms: _1355  and  _1358
REMARK  413  A    between atoms: _1364  and  _1365
REMARK  414  A    between atoms: _1365  and  _1366
REMARK  415  A    between atoms: _1365  and  _1368
REMARK  416  A    between atoms: _1368  and  _1369
REMARK  417  A    between atoms: _1376  and  _1377
REMARK  418  A    between atoms: _1377  and  _1378
REMARK  419  A    between atoms: _1377  and  _1380
REMARK  420  A    between atoms: _1380  and  _1381
REMARK  421  A    between atoms: _1381  and  _1382
REMARK  422  A    between atoms: _1381  and  _1383
REMARK  423  A    between atoms: _1395  and  _1396
REMARK  424  A    between atoms: _1396  and  _1399
REMARK  425  A    between atoms: _1399  and  _1400
REMARK  426  A    between atoms: _1399  and  _1401
REMARK  427  A    between atoms: _1400  and  _1402
REMARK  428  A    between atoms: _1422  and  _1425
REMARK  429  A    between atoms: _1424  and  _1428
REMARK  430  A    between atoms: _1425  and  _1427
REMARK  431  A    between atoms: _1443  and  _1444
REMARK  432  A    between atoms: _1443  and  _1446
REMARK  433  A    between atoms: _1446  and  _1447
REMARK  434  A    between atoms: _1457  and  _1458
REMARK  435  A    between atoms: _1458  and  _1459
REMARK  436  A    between atoms: _1458  and  _1461
REMARK  437  A    between atoms: _1461  and  _1462
REMARK  438  A    between atoms: _1462  and  _1463
REMARK  439  A    between atoms: _1462  and  _1464
REMARK  440  A    between atoms: _1476  and  _1477
REMARK  441  A    between atoms: _1477  and  _1478
REMARK  442  A    between atoms: _1483  and  _1484
REMARK  443  A    between atoms: _1484  and  _1485
REMARK  444  A    between atoms: _1484  and  _1487
REMARK  445  A    between atoms: _1487  and  _1488
REMARK  446  A    between atoms: _1487  and  _1489
REMARK  447  A    between atoms: _1497  and  _1498
REMARK  448  A    between atoms: _1498  and  _1499
REMARK  449  A    between atoms: _1498  and  _1501
REMARK  450  A    between atoms: _1501  and  _1502
REMARK  451  A    between atoms: _1501  and  _1503
REMARK  452  A    between atoms: _1502  and  _1504
REMARK  453  A    between atoms: _1516  and  _1517
REMARK  454  A    between atoms: _1517  and  _1518
REMARK  455  A    between atoms: _1517  and  _1520
REMARK  456  A    between atoms: _1526  and  _1527
REMARK  457  A    between atoms: _1527  and  _1528
REMARK  458  A    between atoms: _1527  and  _1530
REMARK  459  A    between atoms: _1530  and  _1531
REMARK  460  A    between atoms: _1531  and  _1532
REMARK  461  A    between atoms: _1532  and  _1533
REMARK  462  A    between atoms: _1533  and  _1534
REMARK  463  A    between atoms: _1548  and  _1549
REMARK  464  A    between atoms: _1549  and  _1550
REMARK  465  A    between atoms: _1549  and  _1552
REMARK  466  A    between atoms: _1552  and  _1553
REMARK  467  A    between atoms: _1559  and  _1560
REMARK  468  A    between atoms: _1560  and  _1561
REMARK  469  A    between atoms: _1566  and  _1567
REMARK  470  A    between atoms: _1567  and  _1568
REMARK  471  A    between atoms: _1567  and  _1570
REMARK  472  A    between atoms: _1570  and  _1571
REMARK  473  A    between atoms: _1570  and  _1572
REMARK  474  A    between atoms: _1580  and  _1581
REMARK  475  A    between atoms: _1581  and  _1582
REMARK  476  A    between atoms: _1581  and  _1584
REMARK  477  A    between atoms: _1584  and  _1585
REMARK  478  A    between atoms: _1585  and  _1586
REMARK  479  A    between atoms: _1586  and  _1587
REMARK  480  A    between atoms: _1587  and  _1588
REMARK  481  A    between atoms: _1602  and  _1603
REMARK  482  A    between atoms: _1603  and  _1604
REMARK  483  A    between atoms: _1603  and  _1606
REMARK  484  A    between atoms: _1612  and  _1613
REMARK  485  A    between atoms: _1613  and  _1614
REMARK  486  A    between atoms: _1613  and  _1616
REMARK  487  A    between atoms: _1616  and  _1617
REMARK  488  A    between atoms: _1632  and  _1633
REMARK  489  A    between atoms: _1633  and  _1634
REMARK  490  A    between atoms: _1633  and  _1636
REMARK  491  A    between atoms: _1636  and  _1637
REMARK  492  A    between atoms: _1637  and  _1638
REMARK  493  A    between atoms: _1638  and  _1639
REMARK  494  A    between atoms: _1649  and  _1650
REMARK  495  A    between atoms: _1650  and  _1651
REMARK  496  A    between atoms: _1650  and  _1653
REMARK  497  A    between atoms: _1653  and  _1654
REMARK  498  A    between atoms: _1654  and  _1655
REMARK  499  A    between atoms: _1664  and  _1665
REMARK  500  A    between atoms: _1665  and  _1666
REMARK  501  A    between atoms: _1665  and  _1668
REMARK  502  A    between atoms: _1674  and  _1675
REMARK  503  A    between atoms: _1675  and  _1676
REMARK  504  A    between atoms: _1675  and  _1678
REMARK  505  A    between atoms: _1678  and  _1679
REMARK  506  A    between atoms: _1679  and  _1680
REMARK  507  A    between atoms: _1679  and  _1681
REMARK  508  A    between atoms: _1693  and  _1694
REMARK  509  A    between atoms: _1694  and  _1695
REMARK  510  A    between atoms: _1694  and  _1697
REMARK  511  A    between atoms: _1697  and  _1698
REMARK  512  A    between atoms: _1698  and  _1699
REMARK  513  A    between atoms: _1710  and  _1711
REMARK  514  A    between atoms: _1711  and  _1712
REMARK  515  A    between atoms: _1711  and  _1714
REMARK  516  A    between atoms: _1720  and  _1721
REMARK  517  A    between atoms: _1721  and  _1722
REMARK  518  A    between atoms: _1727  and  _1728
REMARK  519  A    between atoms: _1728  and  _1729
REMARK  520  A    between atoms: _1728  and  _1731
REMARK  521  A    between atoms: _1737  and  _1738
REMARK  522  A    between atoms: _1738  and  _1739
REMARK  523  A    between atoms: _1738  and  _1741
REMARK  524  A    between atoms: _1741  and  _1742
REMARK  525  A    between atoms: _1749  and  _1750
REMARK  526  A    between atoms: _1750  and  _1751
REMARK  527  A    between atoms: _1750  and  _1753
REMARK  528  A    between atoms: _1753  and  _1754
REMARK  529  A    between atoms: _1753  and  _1755
REMARK  530  A    between atoms: _1754  and  _1756
REMARK  531  A    between atoms: _1768  and  _1769
REMARK  532  A    between atoms: _1769  and  _1772
REMARK  533  A    between atoms: _1772  and  _1773
REMARK  534  A    between atoms: _1791  and  _1793
REMARK  535  A    between atoms: _1792  and  _1794
REMARK  536  A    between atoms: _1814  and  _1815
REMARK  537  A    between atoms: _1814  and  _1817
REMARK  538  A    between atoms: _1817  and  _1818
REMARK  539  A    between atoms: _1817  and  _1819
REMARK  540  A    between atoms: _1818  and  _1820
REMARK  541  A    between atoms: _1833  and  _1834
REMARK  542  A    between atoms: _1834  and  _1835
REMARK  543  A    between atoms: _1840  and  _1841
REMARK  544  A    between atoms: _1841  and  _1842
REMARK  545  A    between atoms: _1841  and  _1844
REMARK  546  A    between atoms: _1844  and  _1845
REMARK  547  A    between atoms: _1845  and  _1846
REMARK  548  A    between atoms: _1857  and  _1858
REMARK  549  A    between atoms: _1858  and  _1859
REMARK  550  A    between atoms: _1858  and  _1861
REMARK  551  A    between atoms: _1861  and  _1862
REMARK  552  A    between atoms: _1877  and  _1878
REMARK  553  A    between atoms: _1878  and  _1879
REMARK  554  A    between atoms: _1884  and  _1885
REMARK  555  A    between atoms: _1885  and  _1886
REMARK  556  A    between atoms: _1885  and  _1888
REMARK  557  A    between atoms: _1888  and  _1889
REMARK  558  A    between atoms: _1888  and  _1890
REMARK  559  A    between atoms: _1900  and  _1901
REMARK  560  A    between atoms: _1901  and  _1902
REMARK  561  A    between atoms: _1907  and  _1908
REMARK  562  A    between atoms: _1908  and  _1909
REMARK  563  A    between atoms: _1908  and  _1911
REMARK  564  A    between atoms: _1911  and  _1912
REMARK  565  A    between atoms: _1927  and  _1928
REMARK  566  A    between atoms: _1928  and  _1929
REMARK  567  A    between atoms: _1928  and  _1931
REMARK  568  A    between atoms: _1931  and  _1932
REMARK  569  A    between atoms: _1937  and  _1938
REMARK  570  A    between atoms: _1948  and  _1949
REMARK  571  A    between atoms: _1949  and  _1950
REMARK  572  A    between atoms: _1949  and  _1952
REMARK  573  A    between atoms: _1952  and  _1953
REMARK  574  A    between atoms: _1959  and  _1960
REMARK  575  A    between atoms: _1960  and  _1961
REMARK  576  A    between atoms: _1960  and  _1963
REMARK  577  A    between atoms: _1969  and  _1970
REMARK  578  A    between atoms: _1970  and  _1971
REMARK  579  A    between atoms: _1970  and  _1973
REMARK  580  A    between atoms: _1973  and  _1974
REMARK  581  A    between atoms: _1979  and  _1980
REMARK  582  A    between atoms: _1990  and  _1991
REMARK  583  A    between atoms: _1991  and  _1992
REMARK  584  A    between atoms: _1991  and  _1994
REMARK  585  A    between atoms: _1994  and  _1995
REMARK  586  A    between atoms: _1995  and  _1996
REMARK  587  A    between atoms: _1995  and  _1997
REMARK  588  A    between atoms: _2009  and  _2010
REMARK  589  A    between atoms: _2010  and  _2011
REMARK  590  A    between atoms: _2010  and  _2013
REMARK  591  A    between atoms: _2013  and  _2014
REMARK  592  A    between atoms: _2013  and  _2015
REMARK  593  A    between atoms: _2025  and  _2026
REMARK  594  A    between atoms: _2026  and  _2027
REMARK  595  A    between atoms: _2026  and  _2029
REMARK  596  A    between atoms: _2035  and  _2036
REMARK  597  A    between atoms: _2036  and  _2037
REMARK  598  A    between atoms: _2036  and  _2039
REMARK  599  A    between atoms: _2039  and  _2040
REMARK  600  A    between atoms: _2040  and  _2041
REMARK  601  A    between atoms: _2050  and  _2051
REMARK  602  A    between atoms: _2051  and  _2052
REMARK  603  A    between atoms: _2051  and  _2054
REMARK  604  A    between atoms: _2054  and  _2055
REMARK  605  A    between atoms: _2055  and  _2056
REMARK  606  A    between atoms: _2056  and  _2057
REMARK  607  A    between atoms: _2057  and  _2058
REMARK  608  A    between atoms: _2072  and  _2073
REMARK  609  A    between atoms: _2073  and  _2074
REMARK  610  A    between atoms: _2073  and  _2076
REMARK  611  A    between atoms: _2076  and  _2077
REMARK  612  A    between atoms: _2076  and  _2078
REMARK  613  A    between atoms: _2088  and  _2089
REMARK  614  A    between atoms: _2089  and  _2090
REMARK  615  A    between atoms: _2089  and  _2092
REMARK  616  A    between atoms: _2092  and  _2093
REMARK  617  A    between atoms: _2092  and  _2094
REMARK  618  A    between atoms: _2102  and  _2103
REMARK  619  A    between atoms: _2103  and  _2104
REMARK  620  A    between atoms: _2103  and  _2106
REMARK  621  A    between atoms: _2106  and  _2107
REMARK  622  A    between atoms: _2106  and  _2108
REMARK  623  A    between atoms: _2118  and  _2119
REMARK  624  A    between atoms: _2119  and  _2120
REMARK  625  A    between atoms: _2119  and  _2122
REMARK  626  A    between atoms: _2122  and  _2123
REMARK  627  A    between atoms: _2122  and  _2124
REMARK  628  A    between atoms: _2123  and  _2125
REMARK  629  A    between atoms: _2137  and  _2138
REMARK  630  A    between atoms: _2138  and  _2139
REMARK  631  A    between atoms: _2138  and  _2141
REMARK  632  A    between atoms: _2141  and  _2142
REMARK  633  A    between atoms: _2141  and  _2143
REMARK  634  A    between atoms: _2151  and  _2152
REMARK  635  A    between atoms: _2152  and  _2153
REMARK  636  A    between atoms: _2152  and  _2155
REMARK  637  A    between atoms: _2155  and  _2156
REMARK  638  A    between atoms: _2156  and  _2157
REMARK  639  A    between atoms: _2157  and  _2158
REMARK  640  A    between atoms: _2158  and  _2159
REMARK  641  A    between atoms: _2173  and  _2174
REMARK  642  A    between atoms: _2174  and  _2175
REMARK  643  A    between atoms: _2174  and  _2177
REMARK  644  A    between atoms: _2177  and  _2178
REMARK  645  A    between atoms: _2190  and  _2191
REMARK  646  A    between atoms: _2191  and  _2192
REMARK  647  A    between atoms: _2191  and  _2194
REMARK  648  A    between atoms: _2194  and  _2195
REMARK  649  A    between atoms: _2204  and  _2205
REMARK  650  A    between atoms: _2205  and  _2206
REMARK  651  A    between atoms: _2205  and  _2208
REMARK  652  A    between atoms: _2208  and  _2209
REMARK  653  A    between atoms: _2216  and  _2217
REMARK  654  A    between atoms: _2217  and  _2218
REMARK  655  A    between atoms: _2217  and  _2220
REMARK  656  A    between atoms: _2220  and  _2221
REMARK  657  A    between atoms: _2228  and  _2229
REMARK  658  A    between atoms: _2229  and  _2230
REMARK  659  A    between atoms: _2229  and  _2232
REMARK  660  A    between atoms: _2232  and  _2233
REMARK  661  A    between atoms: _2233  and  _2234
REMARK  662  A    between atoms: _2243  and  _2244
REMARK  663  A    between atoms: _2244  and  _2245
REMARK  664  A    between atoms: _2244  and  _2247
REMARK  665  A    between atoms: _2247  and  _2248
REMARK  666  A    between atoms: _2248  and  _2249
REMARK  667  A    between atoms: _2260  and  _2261
REMARK  668  A    between atoms: _2261  and  _2262
REMARK  669  A    between atoms: _2261  and  _2264
REMARK  670  A    between atoms: _2264  and  _2265
REMARK  671  A    between atoms: _2270  and  _2271
REMARK  672  A    between atoms: _2281  and  _2282
REMARK  673  A    between atoms: _2282  and  _2283
REMARK  674  A    between atoms: _2282  and  _2285
REMARK  675  A    between atoms: _2291  and  _2292
REMARK  676  A    between atoms: _2292  and  _2293
REMARK  677  A    between atoms: _2292  and  _2295
REMARK  678  A    between atoms: _2295  and  _2296
REMARK  679  A    between atoms: _2315  and  _2316
REMARK  680  A    between atoms: _2316  and  _2317
REMARK  681  A    between atoms: _2316  and  _2319
REMARK  682  A    between atoms: _2319  and  _2320
REMARK  683  A    between atoms: _2320  and  _2321
REMARK  684  A    between atoms: _2330  and  _2331
REMARK  685  A    between atoms: _2331  and  _2332
REMARK  686  A    between atoms: _2331  and  _2334
REMARK  687  A    between atoms: _2334  and  _2335
REMARK  688  A    between atoms: _2341  and  _2342
REMARK  689  A    between atoms: _2342  and  _2343
REMARK  690  A    between atoms: _2342  and  _2345
REMARK  691  A    between atoms: _2345  and  _2346
REMARK  692  A    between atoms: _2352  and  _2353
REMARK  693  A    between atoms: _2353  and  _2354
REMARK  694  A    between atoms: _2353  and  _2356
REMARK  695  A    between atoms: _2362  and  _2363
REMARK  696  A    between atoms: _2363  and  _2364
REMARK  697  A    between atoms: _2369  and  _2370
REMARK  698  A    between atoms: _2370  and  _2371
REMARK  699  A    between atoms: _2376  and  _2377
REMARK  700  A    between atoms: _2377  and  _2378
REMARK  701  A    between atoms: _2377  and  _2380
REMARK  702  A    between atoms: _2380  and  _2381
REMARK  703  A    between atoms: _2387  and  _2388
REMARK  704  A    between atoms: _2388  and  _2389
REMARK  705  A    between atoms: _2388  and  _2391
REMARK  706  A    between atoms: _2391  and  _2392
REMARK  707  A    between atoms: _2407  and  _2408
REMARK  708  A    between atoms: _2408  and  _2409
REMARK  709  A    between atoms: _2408  and  _2411
REMARK  710  A    between atoms: _2411  and  _2412
REMARK  711  A    between atoms: _2411  and  _2413
REMARK  712  A    between atoms: _2421  and  _2422
REMARK  713  A    between atoms: _2422  and  _2423
REMARK  714  A    between atoms: _2422  and  _2425
REMARK  715  A    between atoms: _2425  and  _2426
REMARK  716  A    between atoms: _2425  and  _2427
REMARK  717  A    between atoms: _2437  and  _2438
REMARK  718  A    between atoms: _2438  and  _2439
REMARK  719  A    between atoms: _2438  and  _2441
REMARK  720  A    between atoms: _2441  and  _2442
REMARK  721  A    between atoms: _2442  and  _2443
REMARK  722  A    between atoms: _2443  and  _2444
REMARK  723  A    between atoms: _2461  and  _2462
REMARK  724  A    between atoms: _2462  and  _2463
REMARK  725  A    between atoms: _2462  and  _2465
REMARK  726  A    between atoms: _2465  and  _2466
REMARK  727  A    between atoms: _2465  and  _2467
REMARK  728  A    between atoms: _2475  and  _2476
REMARK  729  A    between atoms: _2476  and  _2477
REMARK  730  A    between atoms: _2476  and  _2479
REMARK  731  A    between atoms: _2479  and  _2480
REMARK  732  A    between atoms: _2487  and  _2488
REMARK  733  A    between atoms: _2488  and  _2489
REMARK  734  A    between atoms: _2488  and  _2491
REMARK  735  A    between atoms: _2491  and  _2492
REMARK  736  A    between atoms: _2491  and  _2493
REMARK  737  A    between atoms: _2501  and  _2502
REMARK  738  A    between atoms: _2502  and  _2503
REMARK  739  A    between atoms: _2508  and  _2509
REMARK  740  A    between atoms: _2509  and  _2510
REMARK  741  A    between atoms: _2509  and  _2512
REMARK  742  A    between atoms: _2512  and  _2513
REMARK  743  A    between atoms: _2513  and  _2514
REMARK  744  A    between atoms: _2524  and  _2525
REMARK  745  A    between atoms: _2537  and  _2538
REMARK  746  A    between atoms: _2538  and  _2539
REMARK  747  A    between atoms: _2538  and  _2541
REMARK  748  A    between atoms: _2541  and  _2542
REMARK  749  A    between atoms: _2542  and  _2543
REMARK  750  A    between atoms: _2543  and  _2544
REMARK  751  A    between atoms: _2554  and  _2555
REMARK  752  A    between atoms: _2555  and  _2556
REMARK  753  A    between atoms: _2561  and  _2562
REMARK  754  A    between atoms: _2562  and  _2563
REMARK  755  A    between atoms: _2562  and  _2565
REMARK  756  A    between atoms: _2565  and  _2566
REMARK  757  A    between atoms: _2566  and  _2567
REMARK  758  A    between atoms: _2567  and  _2568
REMARK  759  A    between atoms: _2585  and  _2586
REMARK  760  A    between atoms: _2586  and  _2587
REMARK  761  A    between atoms: _2592  and  _2593
REMARK  762  A    between atoms: _2593  and  _2594
REMARK  763  A    between atoms: _2593  and  _2596
REMARK  764  A    between atoms: _2596  and  _2597
REMARK  765  A    between atoms: _2596  and  _2598
REMARK  766  A    between atoms: _2606  and  _2607
REMARK  767  A    between atoms: _2607  and  _2608
REMARK  768  A    between atoms: _2607  and  _2610
REMARK  769  A    between atoms: _2610  and  _2611
REMARK  770  A    between atoms: _2611  and  _2612
REMARK  771  A    between atoms: _2612  and  _2613
REMARK  772  A    between atoms: _2613  and  _2614
REMARK  773  A    between atoms: _2628  and  _2629
REMARK  774  A    between atoms: _2629  and  _2630
REMARK  775  A    between atoms: _2629  and  _2632
REMARK  776  A    between atoms: _2632  and  _2633
REMARK  777  A    between atoms: _2632  and  _2634
REMARK  778  A    between atoms: _2644  and  _2645
REMARK  779  A    between atoms: _2645  and  _2646
REMARK  780  A    between atoms: _2645  and  _2648
REMARK  781  A    between atoms: _2648  and  _2649
REMARK  782  A    between atoms: _2648  and  _2650
REMARK  783  A    between atoms: _2649  and  _2651
REMARK  784  A    between atoms: _2663  and  _2664
REMARK  785  A    between atoms: _2664  and  _2665
REMARK  786  A    between atoms: _2664  and  _2667
REMARK  787  A    between atoms: _2667  and  _2668
REMARK  788  A    between atoms: _2668  and  _2669
REMARK  789  A    between atoms: _2668  and  _2670
REMARK  790  A    between atoms: _2682  and  _2683
REMARK  791  A    between atoms: _2683  and  _2684
REMARK  792  A    between atoms: _2683  and  _2686
REMARK  793  A    between atoms: _2686  and  _2687
REMARK  794  A    between atoms: _2699  and  _2700
REMARK  795  A    between atoms: _2700  and  _2701
REMARK  796  A    between atoms: _2700  and  _2703
REMARK  797  A    between atoms: _2703  and  _2704
REMARK  798  A    between atoms: _2704  and  _2705
REMARK  799  A    between atoms: _2704  and  _2706
REMARK  800  A    between atoms: _2718  and  _2719
REMARK  801  A    between atoms: _2719  and  _2720
REMARK  802  A    between atoms: _2719  and  _2722
REMARK  803  A    between atoms: _2722  and  _2723
REMARK  804  A    between atoms: _2723  and  _2724
REMARK  805  A    between atoms: _2724  and  _2725
REMARK  806  A    between atoms: _2725  and  _2726
REMARK  807  A    between atoms: _2740  and  _2741
REMARK  808  A    between atoms: _2741  and  _2742
REMARK  809  A    between atoms: _2741  and  _2744
REMARK  810  A    between atoms: _2744  and  _2745
REMARK  811  A    between atoms: _2745  and  _2746
REMARK  812  A    between atoms: _2755  and  _2756
REMARK  813  A    between atoms: _2756  and  _2757
REMARK  814  A    between atoms: _2756  and  _2759
REMARK  815  A    between atoms: _2759  and  _2760
REMARK  816  A    between atoms: _2767  and  _2768
REMARK  817  A    between atoms: _2768  and  _2769
REMARK  818  A    between atoms: _2768  and  _2771
REMARK  819  A    between atoms: _2771  and  _2772
REMARK  820  A    between atoms: _2772  and  _2773
REMARK  821  A    between atoms: _2784  and  _2785
REMARK  822  A    between atoms: _2785  and  _2786
REMARK  823  A    between atoms: _2785  and  _2788
REMARK  824  A    between atoms: _2788  and  _2789
REMARK  825  A    between atoms: _2788  and  _2790
REMARK  826  A    between atoms: _2798  and  _2799
REMARK  827  A    between atoms: _2799  and  _2800
REMARK  828  A    between atoms: _2799  and  _2802
REMARK  829  A    between atoms: _2802  and  _2803
REMARK  830  A    between atoms: _2803  and  _2804
REMARK  831  A    between atoms: _2813  and  _2814
REMARK  832  A    between atoms: _2814  and  _2815
REMARK  833  A    between atoms: _2814  and  _2817
REMARK  834  A    between atoms: _2817  and  _2818
REMARK  835  A    between atoms: _2823  and  _2824
REMARK  836  A    between atoms: _2834  and  _2835
REMARK  837  A    between atoms: _2835  and  _2838
REMARK  838  A    between atoms: _2838  and  _2839
REMARK  839  A    between atoms: _2839  and  _2840
REMARK  840  A    between atoms: _2839  and  _2841
REMARK  841  A    between atoms: _2884  and  _2885
REMARK  842  A    between atoms: _2884  and  _2887
REMARK  843  A    between atoms: _2887  and  _2888
REMARK  844  A    between atoms: _2888  and  _2889
REMARK  845  A    between atoms: _2899  and  _2900
REMARK  846  A    between atoms: _2900  and  _2901
REMARK  847  A    between atoms: _2900  and  _2903
REMARK  848  A    between atoms: _2903  and  _2904
REMARK  849  A    between atoms: _2904  and  _2905
REMARK  850  A    between atoms: _2905  and  _2906
REMARK  851  A    between atoms: _2923  and  _2924
REMARK  852  A    between atoms: _2924  and  _2925
REMARK  853  A    between atoms: _2924  and  _2927
REMARK  854  A    between atoms: _2927  and  _2928
REMARK  855  A    between atoms: _2928  and  _2929
REMARK  856  A    between atoms: _2929  and  _2930
REMARK  857  A    between atoms: _2947  and  _2948
REMARK  858  A    between atoms: _2948  and  _2949
REMARK  859  A    between atoms: _2948  and  _2951
REMARK  860  A    between atoms: _2951  and  _2952
REMARK  861  A    between atoms: _2951  and  _2953
REMARK  862  A    between atoms: _2952  and  _2954
REMARK  863  A    between atoms: _2966  and  _2967
REMARK  864  A    between atoms: _2967  and  _2968
REMARK  865  A    between atoms: _2967  and  _2970
REMARK  866  A    between atoms: _2970  and  _2971
REMARK  867  A    between atoms: _2971  and  _2972
REMARK  868  A    between atoms: _2972  and  _2973
REMARK  869  A    between atoms: _2973  and  _2974
REMARK  870  A    between atoms: _2988  and  _2989
REMARK  871  A    between atoms: _2989  and  _2990
REMARK  872  A    between atoms: _2989  and  _2992
REMARK  873  A    between atoms: _2992  and  _2993
REMARK  874  A    between atoms: _2993  and  _2994
REMARK  875  A    between atoms: _3003  and  _3004
REMARK  876  A    between atoms: _3004  and  _3005
REMARK  877  A    between atoms: _3004  and  _3007
REMARK  878  A    between atoms: _3007  and  _3008
REMARK  879  A    between atoms: _3007  and  _3009
REMARK  880  A    between atoms: _3008  and  _3010
REMARK  881  A    between atoms: _3022  and  _3023
REMARK  882  A    between atoms: _3023  and  _3024
REMARK  883  A    between atoms: _3023  and  _3026
REMARK  884  A    between atoms: _3026  and  _3027
REMARK  885  A    between atoms: _3026  and  _3028
REMARK  886  A    between atoms: _3038  and  _3039
REMARK  887  A    between atoms: _3039  and  _3040
REMARK  888  A    between atoms: _3039  and  _3042
REMARK  889  A    between atoms: _3042  and  _3043
REMARK  890  A    between atoms: _3043  and  _3044
REMARK  891  A    between atoms: _3044  and  _3045
REMARK  892  A    between atoms: _3045  and  _3046
REMARK  893  A    between atoms: _3060  and  _3061
REMARK  894  A    between atoms: _3061  and  _3062
REMARK  895  A    between atoms: _3061  and  _3064
REMARK  896  A    between atoms: _3064  and  _3065
REMARK  897  A    between atoms: _3065  and  _3066
REMARK  898  A    between atoms: _3066  and  _3067
REMARK  899  A    between atoms: _3067  and  _3068
REMARK  900  A    between atoms: _3082  and  _3083
REMARK  901  A    between atoms: _3083  and  _3084
REMARK  902  A    between atoms: _3083  and  _3086
REMARK  903  A    between atoms: _3086  and  _3087
REMARK  904  A    between atoms: _3099  and  _3100
REMARK  905  A    between atoms: _3100  and  _3101
REMARK  906  A    between atoms: _3100  and  _3103
REMARK  907  A    between atoms: _3103  and  _3104
REMARK  908  A    between atoms: _3110  and  _3111
REMARK  909  A    between atoms: _3111  and  _3112
REMARK  910  A    between atoms: _3111  and  _3114
REMARK  911  A    between atoms: _3114  and  _3115
REMARK  912  A    between atoms: _3115  and  _3116
REMARK  913  A    between atoms: _3127  and  _3128
REMARK  914  A    between atoms: _3128  and  _3129
REMARK  915  A    between atoms: _3128  and  _3131
REMARK  916  A    between atoms: _3131  and  _3132
REMARK  917  A    between atoms: _3147  and  _3148
REMARK  918  A    between atoms: _3148  and  _3149
REMARK  919  A    between atoms: _3148  and  _3151
REMARK  920  A    between atoms: _3151  and  _3152
REMARK  921  A    between atoms: _3151  and  _3153
REMARK  922  A    between atoms: _3152  and  _3154
REMARK  923  A    between atoms: _3166  and  _3167
REMARK  924  A    between atoms: _3167  and  _3168
REMARK  925  A    between atoms: _3173  and  _3174
REMARK  926  A    between atoms: _3174  and  _3175
REMARK  927  A    between atoms: _3174  and  _3177
REMARK  928  A    between atoms: _3177  and  _3178
REMARK  929  A    between atoms: _3183  and  _3184
REMARK  930  A    between atoms: _3195  and  _3196
REMARK  931  A    between atoms: _3208  and  _3209
REMARK  932  A    between atoms: _3209  and  _3210
REMARK  933  A    between atoms: _3209  and  _3212
REMARK  934  A    between atoms: _3212  and  _3213
REMARK  935  A    between atoms: _3212  and  _3214
REMARK  936  A    between atoms: _3213  and  _3215
REMARK  937  A    between atoms: _3227  and  _3228
REMARK  938  A    between atoms: _3228  and  _3229
REMARK  939  A    between atoms: _3228  and  _3231
REMARK  940  A    between atoms: _3231  and  _3232
REMARK  941  A    between atoms: _3231  and  _3233
REMARK  942  A    between atoms: _3241  and  _3242
REMARK  943  A    between atoms: _3242  and  _3243
REMARK  944  A    between atoms: _3242  and  _3245
REMARK  945  A    between atoms: _3245  and  _3246
REMARK  946  A    between atoms: _3246  and  _3247
REMARK  947  A    between atoms: _3246  and  _3248
REMARK  948  A    between atoms: _3260  and  _3261
REMARK  949  A    between atoms: _3261  and  _3262
REMARK  950  A    between atoms: _3261  and  _3264
REMARK  951  A    between atoms: _3264  and  _3265
REMARK  952  A    between atoms: _3280  and  _3281
REMARK  953  A    between atoms: _3281  and  _3282
REMARK  954  A    between atoms: _3281  and  _3284
REMARK  955  A    between atoms: _3284  and  _3285
REMARK  956  A    between atoms: _3284  and  _3286
REMARK  957  A    between atoms: _3296  and  _3297
REMARK  958  A    between atoms: _3297  and  _3298
REMARK  959  A    between atoms: _3297  and  _3300
REMARK  960  A    between atoms: _3300  and  _3301
REMARK  961  A    between atoms: _3301  and  _3302
REMARK                            x       y       z     vdW  Elec       q    Type
REMARK                         _______ _______ _______ _____ _____    ______ ____
ROOT
ATOM      1  C   UNL     1      12.093  31.171  17.996  0.00  0.00    +0.279 C 
ATOM      2  O   UNL     1      12.979  30.866  18.792  0.00  0.00    -0.279 OA
ENDROOT
TORSDOF 0
REMARK  Name = /Users/mlugowska/PhD/ML_residence_time_prediction/protein_files/5J20_protein.pdb
REMARK  961 active torsions:
REMARK  status: ('A' for Active; 'I' for Inactive)
REMARK    1  A    between atoms: _2  and  _3
REMARK    2  A    between atoms: _2  and  _5
REMARK    3  A    between atoms: _10  and  _11
REMARK    4  A    between atoms: _11  and  _12
REMARK    5  A    between atoms: _11  and  _14
REMARK    6  A    between atoms: _14  and  _15
REMARK    7  A    between atoms: _14  and  _16
REMARK    8  A    between atoms: _26  and  _27
REMARK    9  A    between atoms: _27  and  _28
REMARK   10  A    between atoms: _27  and  _30
REMARK   11  A    between atoms: _30  and  _31
REMARK   12  A    between atoms: _31  and  _32
REMARK   13  A    between atoms: _41  and  _42
REMARK   14  A    between atoms: _42  and  _43
REMARK   15  A    between atoms: _42  and  _45
REMARK   16  A    between atoms: _45  and  _46
REMARK   17  A    between atoms: _45  and  _47
REMARK   18  A    between atoms: _55  and  _56
REMARK   19  A    between atoms: _56  and  _57
REMARK   20  A    between atoms: _56  and  _59
REMARK   21  A    between atoms: _59  and  _60
REMARK   22  A    between atoms: _75  and  _76
REMARK   23  A    between atoms: _76  and  _77
REMARK   24  A    between atoms: _76  and  _79
REMARK   25  A    between atoms: _85  and  _86
REMARK   26  A    between atoms: _86  and  _87
REMARK   27  A    between atoms: _86  and  _89
REMARK   28  A    between atoms: _89  and  _90
REMARK   29  A    between atoms: _105  and  _106
REMARK   30  A    between atoms: _106  and  _107
REMARK   31  A    between atoms: _106  and  _109
REMARK   32  A    between atoms: _109  and  _110
REMARK   33  A    between atoms: _110  and  _111
REMARK   34  A    between atoms: _122  and  _123
REMARK   35  A    between atoms: _123  and  _124
REMARK   36  A    between atoms: _123  and  _126
REMARK   37  A    between atoms: _132  and  _133
REMARK   38  A    between atoms: _133  and  _134
REMARK   39  A    between atoms: _133  and  _136
REMARK   40  A    between atoms: _136  and  _137
REMARK   41  A    between atoms: _137  and  _138
REMARK   42  A    between atoms: _147  and  _148
REMARK   43  A    between atoms: _148  and  _149
REMARK   44  A    between atoms: _148  and  _151
REMARK   45  A    between atoms: _151  and  _152
REMARK   46  A    between atoms: _151  and  _153
REMARK   47  A    between atoms: _152  and  _154
REMARK   48  A    between atoms: _166  and  _167
REMARK   49  A    between atoms: _167  and  _168
REMARK   50  A    between atoms: _167  and  _170
REMARK   51  A    between atoms: _176  and  _177
REMARK   52  A    between atoms: _177  and  _178
REMARK   53  A    between atoms: _177  and  _180
REMARK   54  A    between atoms: _180  and  _181
REMARK   55  A    between atoms: _181  and  _182
REMARK   56  A    between atoms: _193  and  _194
REMARK   57  A    between atoms: _194  and  _195
REMARK   58  A    between atoms: _194  and  _197
REMARK   59  A    between atoms: _197  and  _198
REMARK   60  A    between atoms: _198  and  _199
REMARK   61  A    between atoms: _198  and  _200
REMARK   62  A    between atoms: _212  and  _213
REMARK   63  A    between atoms: _213  and  _214
REMARK   64  A    between atoms: _213  and  _216
REMARK   65  A    between atoms: _216  and  _217
REMARK   66  A    between atoms: _217  and  _218
REMARK   67  A    between atoms: _218  and  _219
REMARK   68  A    between atoms: _229  and  _230
REMARK   69  A    between atoms: _230  and  _231
REMARK   70  A    between atoms: _230  and  _233
REMARK   71  A    between atoms: _233  and  _234
REMARK   72  A    between atoms: _240  and  _241
REMARK   73  A    between atoms: _241  and  _242
REMARK   74  A    between atoms: _241  and  _244
REMARK   75  A    between atoms: _244  and  _245
REMARK   76  A    between atoms: _245  and  _246
REMARK   77  A    between atoms: _245  and  _247
REMARK   78  A    between atoms: _259  and  _260
REMARK   79  A    between atoms: _260  and  _261
REMARK   80  A    between atoms: _260  and  _263
REMARK   81  A    between atoms: _263  and  _264
REMARK   82  A    between atoms: _263  and  _265
REMARK   83  A    between atoms: _264  and  _266
REMARK   84  A    between atoms: _278  and  _279
REMARK   85  A    between atoms: _279  and  _280
REMARK   86  A    between atoms: _279  and  _282
REMARK   87  A    between atoms: _282  and  _283
REMARK   88  A    between atoms: _282  and  _284
REMARK   89  A    between atoms: _283  and  _285
REMARK   90  A    between atoms: _297  and  _298
REMARK   91  A    between atoms: _298  and  _299
REMARK   92  A    between atoms: _298  and  _301
REMARK   93  A    between atoms: _301  and  _302
REMARK   94  A    between atoms: _311  and  _312
REMARK   95  A    between atoms: _312  and  _313
REMARK   96  A    between atoms: _312  and  _315
REMARK   97  A    between atoms: _315  and  _316
REMARK   98  A    between atoms: _315  and  _317
REMARK   99  A    between atoms: _325  and  _326
REMARK  100  A    between atoms: _326  and  _327
REMARK  101  A    between atoms: _326  and  _329
REMARK  102  A    between atoms: _329  and  _330
REMARK  103  A    between atoms: _345  and  _346
REMARK  104  A    between atoms: _346  and  _347
REMARK  105  A    between atoms: _346  and  _349
REMARK  106  A    between atoms: _349  and  _350
REMARK  107  A    between atoms: _355  and  _356
REMARK  108  A    between atoms: _366  and  _367
REMARK  109  A    between atoms: _367  and  _368
REMARK  110  A    between atoms: _367  and  _370
REMARK  111  A    between atoms: _370  and  _371
REMARK  112  A    between atoms: _377  and  _378
REMARK  113  A    between atoms: _378  and  _379
REMARK  114  A    between atoms: _378  and  _381
REMARK  115  A    between atoms: _381  and  _382
REMARK  116  A    between atoms: _391  and  _392
REMARK  117  A    between atoms: _392  and  _393
REMARK  118  A    between atoms: _392  and  _395
REMARK  119  A    between atoms: _395  and  _396
REMARK  120  A    between atoms: _396  and  _397
REMARK  121  A    between atoms: _397  and  _398
REMARK  122  A    between atoms: _398  and  _399
REMARK  123  A    between atoms: _413  and  _414
REMARK  124  A    between atoms: _414  and  _415
REMARK  125  A    between atoms: _414  and  _417
REMARK  126  A    between atoms: _417  and  _418
REMARK  127  A    between atoms: _418  and  _419
REMARK  128  A    between atoms: _428  and  _429
REMARK  129  A    between atoms: _429  and  _430
REMARK  130  A    between atoms: _429  and  _432
REMARK  131  A    between atoms: _432  and  _433
REMARK  132  A    between atoms: _432  and  _434
REMARK  133  A    between atoms: _433  and  _435
REMARK  134  A    between atoms: _447  and  _448
REMARK  135  A    between atoms: _448  and  _449
REMARK  136  A    between atoms: _448  and  _451
REMARK  137  A    between atoms: _451  and  _452
REMARK  138  A    between atoms: _467  and  _468
REMARK  139  A    between atoms: _468  and  _469
REMARK  140  A    between atoms: _468  and  _471
REMARK  141  A    between atoms: _471  and  _472
REMARK  142  A    between atoms: _472  and  _473
REMARK  143  A    between atoms: _472  and  _474
REMARK  144  A    between atoms: _486  and  _487
REMARK  145  A    between atoms: _487  and  _488
REMARK  146  A    between atoms: _487  and  _490
REMARK  147  A    between atoms: _490  and  _491
REMARK  148  A    between atoms: _491  and  _492
REMARK  149  A    between atoms: _492  and  _493
REMARK  150  A    between atoms: _510  and  _511
REMARK  151  A    between atoms: _511  and  _512
REMARK  152  A    between atoms: _511  and  _514
REMARK  153  A    between atoms: _514  and  _515
REMARK  154  A    between atoms: _515  and  _516
REMARK  155  A    between atoms: _525  and  _526
REMARK  156  A    between atoms: _526  and  _527
REMARK  157  A    between atoms: _526  and  _529
REMARK  158  A    between atoms: _529  and  _530
REMARK  159  A    between atoms: _530  and  _531
REMARK  160  A    between atoms: _530  and  _532
REMARK  161  A    between atoms: _544  and  _545
REMARK  162  A    between atoms: _545  and  _546
REMARK  163  A    between atoms: _545  and  _548
REMARK  164  A    between atoms: _548  and  _549
REMARK  165  A    between atoms: _548  and  _550
REMARK  166  A    between atoms: _549  and  _551
REMARK  167  A    between atoms: _563  and  _564
REMARK  168  A    between atoms: _564  and  _565
REMARK  169  A    between atoms: _564  and  _567
REMARK  170  A    between atoms: _567  and  _568
REMARK  171  A    between atoms: _574  and  _575
REMARK  172  A    between atoms: _575  and  _576
REMARK  173  A    between atoms: _575  and  _578
REMARK  174  A    between atoms: _578  and  _579
REMARK  175  A    between atoms: _588  and  _589
REMARK  176  A    between atoms: _589  and  _590
REMARK  177  A    between atoms: _589  and  _592
REMARK  178  A    between atoms: _592  and  _593
REMARK  179  A    between atoms: _599  and  _600
REMARK  180  A    between atoms: _600  and  _601
REMARK  181  A    between atoms: _600  and  _603
REMARK  182  A    between atoms: _603  and  _604
REMARK  183  A    between atoms: _610  and  _611
REMARK  184  A    between atoms: _611  and  _612
REMARK  185  A    between atoms: _611  and  _614
REMARK  186  A    between atoms: _614  and  _615
REMARK  187  A    between atoms: _622  and  _623
REMARK  188  A    between atoms: _623  and  _624
REMARK  189  A    between atoms: _623  and  _626
REMARK  190  A    between atoms: _632  and  _633
REMARK  191  A    between atoms: _633  and  _634
REMARK  192  A    between atoms: _633  and  _636
REMARK  193  A    between atoms: _636  and  _637
REMARK  194  A    between atoms: _637  and  _638
REMARK  195  A    between atoms: _637  and  _639
REMARK  196  A    between atoms: _651  and  _652
REMARK  197  A    between atoms: _652  and  _653
REMARK  198  A    between atoms: _652  and  _655
REMARK  199  A    between atoms: _655  and  _656
REMARK  200  A    between atoms: _663  and  _664
REMARK  201  A    between atoms: _664  and  _665
REMARK  202  A    between atoms: _664  and  _667
REMARK  203  A    between atoms: _667  and  _668
REMARK  204  A    between atoms: _668  and  _669
REMARK  205  A    between atoms: _669  and  _670
REMARK  206  A    between atoms: _670  and  _671
REMARK  207  A    between atoms: _685  and  _686
REMARK  208  A    between atoms: _686  and  _687
REMARK  209  A    between atoms: _686  and  _689
REMARK  210  A    between atoms: _689  and  _690
REMARK  211  A    between atoms: _689  and  _691
REMARK  212  A    between atoms: _690  and  _692
REMARK  213  A    between atoms: _704  and  _705
REMARK  214  A    between atoms: _705  and  _706
REMARK  215  A    between atoms: _705  and  _708
REMARK  216  A    between atoms: _708  and  _709
REMARK  217  A    between atoms: _709  and  _710
REMARK  218  A    between atoms: _710  and  _711
REMARK  219  A    between atoms: _728  and  _729
REMARK  220  A    between atoms: _729  and  _730
REMARK  221  A    between atoms: _729  and  _732
REMARK  222  A    between atoms: _732  and  _733
REMARK  223  A    between atoms: _738  and  _739
REMARK  224  A    between atoms: _749  and  _750
REMARK  225  A    between atoms: _750  and  _751
REMARK  226  A    between atoms: _750  and  _753
REMARK  227  A    between atoms: _753  and  _754
REMARK  228  A    between atoms: _754  and  _755
REMARK  229  A    between atoms: _764  and  _765
REMARK  230  A    between atoms: _765  and  _766
REMARK  231  A    between atoms: _765  and  _768
REMARK  232  A    between atoms: _772  and  _773
REMARK  233  A    between atoms: _773  and  _774
REMARK  234  A    between atoms: _773  and  _776
REMARK  235  A    between atoms: _776  and  _777
REMARK  236  A    between atoms: _777  and  _778
REMARK  237  A    between atoms: _777  and  _779
REMARK  238  A    between atoms: _791  and  _792
REMARK  239  A    between atoms: _792  and  _793
REMARK  240  A    between atoms: _792  and  _795
REMARK  241  A    between atoms: _795  and  _796
REMARK  242  A    between atoms: _795  and  _797
REMARK  243  A    between atoms: _805  and  _806
REMARK  244  A    between atoms: _806  and  _807
REMARK  245  A    between atoms: _806  and  _809
REMARK  246  A    between atoms: _809  and  _810
REMARK  247  A    between atoms: _818  and  _819
REMARK  248  A    between atoms: _831  and  _832
REMARK  249  A    between atoms: _832  and  _833
REMARK  250  A    between atoms: _832  and  _835
REMARK  251  A    between atoms: _835  and  _836
REMARK  252  A    between atoms: _842  and  _843
REMARK  253  A    between atoms: _843  and  _844
REMARK  254  A    between atoms: _843  and  _846
REMARK  255  A    between atoms: _846  and  _847
REMARK  256  A    between atoms: _847  and  _848
REMARK  257  A    between atoms: _848  and  _849
REMARK  258  A    between atoms: _849  and  _850
REMARK  259  A    between atoms: _864  and  _865
REMARK  260  A    between atoms: _865  and  _866
REMARK  261  A    between atoms: _865  and  _868
REMARK  262  A    between atoms: _868  and  _869
REMARK  263  A    between atoms: _869  and  _870
REMARK  264  A    between atoms: _869  and  _871
REMARK  265  A    between atoms: _883  and  _884
REMARK  266  A    between atoms: _884  and  _885
REMARK  267  A    between atoms: _884  and  _887
REMARK  268  A    between atoms: _887  and  _888
REMARK  269  A    between atoms: _895  and  _896
REMARK  270  A    between atoms: _896  and  _897
REMARK  271  A    between atoms: _896  and  _899
REMARK  272  A    between atoms: _899  and  _900
REMARK  273  A    between atoms: _906  and  _907
REMARK  274  A    between atoms: _907  and  _908
REMARK  275  A    between atoms: _913  and  _914
REMARK  276  A    between atoms: _914  and  _915
REMARK  277  A    between atoms: _914  and  _917
REMARK  278  A    between atoms: _917  and  _918
REMARK  279  A    between atoms: _918  and  _919
REMARK  280  A    between atoms: _919  and  _920
REMARK  281  A    between atoms: _920  and  _921
REMARK  282  A    between atoms: _935  and  _936
REMARK  283  A    between atoms: _936  and  _937
REMARK  284  A    between atoms: _936  and  _939
REMARK  285  A    between atoms: _939  and  _940
REMARK  286  A    between atoms: _940  and  _941
REMARK  287  A    between atoms: _950  and  _951
REMARK  288  A    between atoms: _951  and  _952
REMARK  289  A    between atoms: _951  and  _954
REMARK  290  A    between atoms: _954  and  _955
REMARK  291  A    between atoms: _955  and  _956
REMARK  292  A    between atoms: _955  and  _957
REMARK  293  A    between atoms: _969  and  _970
REMARK  294  A    between atoms: _970  and  _971
REMARK  295  A    between atoms: _970  and  _973
REMARK  296  A    between atoms: _973  and  _974
REMARK  297  A    between atoms: _986  and  _987
REMARK  298  A    between atoms: _987  and  _988
REMARK  299  A    between atoms: _987  and  _990
REMARK  300  A    between atoms: _990  and  _991
REMARK  301  A    between atoms: _990  and  _992
REMARK  302  A    between atoms: _991  and  _993
REMARK  303  A    between atoms: _1005  and  _1006
REMARK  304  A    between atoms: _1006  and  _1007
REMARK  305  A    between atoms: _1006  and  _1009
REMARK  306  A    between atoms: _1009  and  _1010
REMARK  307  A    between atoms: _1019  and  _1020
REMARK  308  A    between atoms: _1020  and  _1021
REMARK  309  A    between atoms: _1020  and  _1023
REMARK  310  A    between atoms: _1023  and  _1024
REMARK  311  A    between atoms: _1024  and  _1025
REMARK  312  A    between atoms: _1024  and  _1026
REMARK  313  A    between atoms: _1038  and  _1039
REMARK  314  A    between atoms: _1039  and  _1040
REMARK  315  A    between atoms: _1039  and  _1042
REMARK  316  A    between atoms: _1042  and  _1043
REMARK  317  A    between atoms: _1042  and  _1044
REMARK  318  A    between atoms: _1043  and  _1045
REMARK  319  A    between atoms: _1058  and  _1059
REMARK  320  A    between atoms: _1071  and  _1072
REMARK  321  A    between atoms: _1072  and  _1073
REMARK  322  A    between atoms: _1072  and  _1075
REMARK  323  A    between atoms: _1075  and  _1076
REMARK  324  A    between atoms: _1085  and  _1086
REMARK  325  A    between atoms: _1086  and  _1087
REMARK  326  A    between atoms: _1086  and  _1089
REMARK  327  A    between atoms: _1089  and  _1090
REMARK  328  A    between atoms: _1090  and  _1091
REMARK  329  A    between atoms: _1091  and  _1092
REMARK  330  A    between atoms: _1092  and  _1093
REMARK  331  A    between atoms: _1107  and  _1108
REMARK  332  A    between atoms: _1108  and  _1109
REMARK  333  A    between atoms: _1108  and  _1111
REMARK  334  A    between atoms: _1111  and  _1112
REMARK  335  A    between atoms: _1112  and  _1113
REMARK  336  A    between atoms: _1124  and  _1125
REMARK  337  A    between atoms: _1125  and  _1126
REMARK  338  A    between atoms: _1125  and  _1128
REMARK  339  A    between atoms: _1128  and  _1129
REMARK  340  A    between atoms: _1136  and  _1137
REMARK  341  A    between atoms: _1137  and  _1138
REMARK  342  A    between atoms: _1137  and  _1140
REMARK  343  A    between atoms: _1140  and  _1141
REMARK  344  A    between atoms: _1141  and  _1142
REMARK  345  A    between atoms: _1142  and  _1143
REMARK  346  A    between atoms: _1160  and  _1161
REMARK  347  A    between atoms: _1161  and  _1162
REMARK  348  A    between atoms: _1161  and  _1164
REMARK  349  A    between atoms: _1164  and  _1165
REMARK  350  A    between atoms: _1164  and  _1166
REMARK  351  A    between atoms: _1174  and  _1175
REMARK  352  A    between atoms: _1175  and  _1176
REMARK  353  A    between atoms: _1175  and  _1178
REMARK  354  A    between atoms: _1178  and  _1179
REMARK  355  A    between atoms: _1179  and  _1180
REMARK  356  A    between atoms: _1179  and  _1181
REMARK  357  A    between atoms: _1193  and  _1194
REMARK  358  A    between atoms: _1194  and  _1195
REMARK  359  A    between atoms: _1194  and  _1197
REMARK  360  A    between atoms: _1197  and  _1198
REMARK  361  A    between atoms: _1197  and  _1199
REMARK  362  A    between atoms: _1207  and  _1208
REMARK  363  A    between atoms: _1208  and  _1209
REMARK  364  A    between atoms: _1208  and  _1211
REMARK  365  A    between atoms: _1211  and  _1212
REMARK  366  A    between atoms: _1211  and  _1213
REMARK  367  A    between atoms: _1212  and  _1214
REMARK  368  A    between atoms: _1226  and  _1227
REMARK  369  A    between atoms: _1227  and  _1228
REMARK  370  A    between atoms: _1227  and  _1230
REMARK  371  A    between atoms: _1230  and  _1231
REMARK  372  A    between atoms: _1230  and  _1232
REMARK  373  A    between atoms: _1242  and  _1243
REMARK  374  A    between atoms: _1243  and  _1244
REMARK  375  A    between atoms: _1243  and  _1246
REMARK  376  A    between atoms: _1246  and  _1247
REMARK  377  A    between atoms: _1254  and  _1255
REMARK  378  A    between atoms: _1255  and  _1256
REMARK  379  A    between atoms: _1255  and  _1258
REMARK  380  A    between atoms: _1258  and  _1259
REMARK  381  A    between atoms: _1258  and  _1260
REMARK  382  A    between atoms: _1268  and  _1269
REMARK  383  A    between atoms: _1269  and  _1270
REMARK  384  A    between atoms: _1275  and  _1276
REMARK  385  A    between atoms: _1276  and  _1277
REMARK  386  A    between atoms: _1276  and  _1279
REMARK  387  A    between atoms: _1279  and  _1280
REMARK  388  A    between atoms: _1279  and  _1281
REMARK  389  A    between atoms: _1280  and  _1282
REMARK  390  A    between atoms: _1294  and  _1295
REMARK  391  A    between atoms: _1295  and  _1296
REMARK  392  A    between atoms: _1301  and  _1302
REMARK  393  A    between atoms: _1302  and  _1303
REMARK  394  A    between atoms: _1302  and  _1305
REMARK  395  A    between atoms: _1305  and  _1306
REMARK  396  A    between atoms: _1306  and  _1307
REMARK  397  A    between atoms: _1307  and  _1308
REMARK  398  A    between atoms: _1318  and  _1319
REMARK  399  A    between atoms: _1319  and  _1320
REMARK  400  A    between atoms: _1319  and  _1322
REMARK  401  A    between atoms: _1322  and  _1323
REMARK  402  A    between atoms: _1322  and  _1324
REMARK  403  A    between atoms: _1332  and  _1333
REMARK  404  A    between atoms: _1333  and  _1334
REMARK  405  A    between atoms: _1333  and  _1336
REMARK  406  A    between atoms: _1336  and  _1337
REMARK  407  A    between atoms: _1337  and  _1338
REMARK  408  A    between atoms: _1338  and  _1339
REMARK  409  A    between atoms: _1339  and  _1340
REMARK  410  A    between atoms: _1354  and  _1355
REMARK  411  A    between atoms: _1355  and  _1356
REMARK  412  A    between atoms: _1355  and  _1358
REMARK  413  A    between atoms: _1364  and  _1365
REMARK  414  A    between atoms: _1365  and  _1366
REMARK  415  A    between atoms: _1365  and  _1368
REMARK  416  A    between atoms: _1368  and  _1369
REMARK  417  A    between atoms: _1376  and  _1377
REMARK  418  A    between atoms: _1377  and  _1378
REMARK  419  A    between atoms: _1377  and  _1380
REMARK  420  A    between atoms: _1380  and  _1381
REMARK  421  A    between atoms: _1381  and  _1382
REMARK  422  A    between atoms: _1381  and  _1383
REMARK  423  A    between atoms: _1395  and  _1396
REMARK  424  A    between atoms: _1396  and  _1399
REMARK  425  A    between atoms: _1399  and  _1400
REMARK  426  A    between atoms: _1399  and  _1401
REMARK  427  A    between atoms: _1400  and  _1402
REMARK  428  A    between atoms: _1422  and  _1425
REMARK  429  A    between atoms: _1424  and  _1428
REMARK  430  A    between atoms: _1425  and  _1427
REMARK  431  A    between atoms: _1443  and  _1444
REMARK  432  A    between atoms: _1443  and  _1446
REMARK  433  A    between atoms: _1446  and  _1447
REMARK  434  A    between atoms: _1457  and  _1458
REMARK  435  A    between atoms: _1458  and  _1459
REMARK  436  A    between atoms: _1458  and  _1461
REMARK  437  A    between atoms: _1461  and  _1462
REMARK  438  A    between atoms: _1462  and  _1463
REMARK  439  A    between atoms: _1462  and  _1464
REMARK  440  A    between atoms: _1476  and  _1477
REMARK  441  A    between atoms: _1477  and  _1478
REMARK  442  A    between atoms: _1483  and  _1484
REMARK  443  A    between atoms: _1484  and  _1485
REMARK  444  A    between atoms: _1484  and  _1487
REMARK  445  A    between atoms: _1487  and  _1488
REMARK  446  A    between atoms: _1487  and  _1489
REMARK  447  A    between atoms: _1497  and  _1498
REMARK  448  A    between atoms: _1498  and  _1499
REMARK  449  A    between atoms: _1498  and  _1501
REMARK  450  A    between atoms: _1501  and  _1502
REMARK  451  A    between atoms: _1501  and  _1503
REMARK  452  A    between atoms: _1502  and  _1504
REMARK  453  A    between atoms: _1516  and  _1517
REMARK  454  A    between atoms: _1517  and  _1518
REMARK  455  A    between atoms: _1517  and  _1520
REMARK  456  A    between atoms: _1526  and  _1527
REMARK  457  A    between atoms: _1527  and  _1528
REMARK  458  A    between atoms: _1527  and  _1530
REMARK  459  A    between atoms: _1530  and  _1531
REMARK  460  A    between atoms: _1531  and  _1532
REMARK  461  A    between atoms: _1532  and  _1533
REMARK  462  A    between atoms: _1533  and  _1534
REMARK  463  A    between atoms: _1548  and  _1549
REMARK  464  A    between atoms: _1549  and  _1550
REMARK  465  A    between atoms: _1549  and  _1552
REMARK  466  A    between atoms: _1552  and  _1553
REMARK  467  A    between atoms: _1559  and  _1560
REMARK  468  A    between atoms: _1560  and  _1561
REMARK  469  A    between atoms: _1566  and  _1567
REMARK  470  A    between atoms: _1567  and  _1568
REMARK  471  A    between atoms: _1567  and  _1570
REMARK  472  A    between atoms: _1570  and  _1571
REMARK  473  A    between atoms: _1570  and  _1572
REMARK  474  A    between atoms: _1580  and  _1581
REMARK  475  A    between atoms: _1581  and  _1582
REMARK  476  A    between atoms: _1581  and  _1584
REMARK  477  A    between atoms: _1584  and  _1585
REMARK  478  A    between atoms: _1585  and  _1586
REMARK  479  A    between atoms: _1586  and  _1587
REMARK  480  A    between atoms: _1587  and  _1588
REMARK  481  A    between atoms: _1602  and  _1603
REMARK  482  A    between atoms: _1603  and  _1604
REMARK  483  A    between atoms: _1603  and  _1606
REMARK  484  A    between atoms: _1612  and  _1613
REMARK  485  A    between atoms: _1613  and  _1614
REMARK  486  A    between atoms: _1613  and  _1616
REMARK  487  A    between atoms: _1616  and  _1617
REMARK  488  A    between atoms: _1632  and  _1633
REMARK  489  A    between atoms: _1633  and  _1634
REMARK  490  A    between atoms: _1633  and  _1636
REMARK  491  A    between atoms: _1636  and  _1637
REMARK  492  A    between atoms: _1637  and  _1638
REMARK  493  A    between atoms: _1638  and  _1639
REMARK  494  A    between atoms: _1649  and  _1650
REMARK  495  A    between atoms: _1650  and  _1651
REMARK  496  A    between atoms: _1650  and  _1653
REMARK  497  A    between atoms: _1653  and  _1654
REMARK  498  A    between atoms: _1654  and  _1655
REMARK  499  A    between atoms: _1664  and  _1665
REMARK  500  A    between atoms: _1665  and  _1666
REMARK  501  A    between atoms: _1665  and  _1668
REMARK  502  A    between atoms: _1674  and  _1675
REMARK  503  A    between atoms: _1675  and  _1676
REMARK  504  A    between atoms: _1675  and  _1678
REMARK  505  A    between atoms: _1678  and  _1679
REMARK  506  A    between atoms: _1679  and  _1680
REMARK  507  A    between atoms: _1679  and  _1681
REMARK  508  A    between atoms: _1693  and  _1694
REMARK  509  A    between atoms: _1694  and  _1695
REMARK  510  A    between atoms: _1694  and  _1697
REMARK  511  A    between atoms: _1697  and  _1698
REMARK  512  A    between atoms: _1698  and  _1699
REMARK  513  A    between atoms: _1710  and  _1711
REMARK  514  A    between atoms: _1711  and  _1712
REMARK  515  A    between atoms: _1711  and  _1714
REMARK  516  A    between atoms: _1720  and  _1721
REMARK  517  A    between atoms: _1721  and  _1722
REMARK  518  A    between atoms: _1727  and  _1728
REMARK  519  A    between atoms: _1728  and  _1729
REMARK  520  A    between atoms: _1728  and  _1731
REMARK  521  A    between atoms: _1737  and  _1738
REMARK  522  A    between atoms: _1738  and  _1739
REMARK  523  A    between atoms: _1738  and  _1741
REMARK  524  A    between atoms: _1741  and  _1742
REMARK  525  A    between atoms: _1749  and  _1750
REMARK  526  A    between atoms: _1750  and  _1751
REMARK  527  A    between atoms: _1750  and  _1753
REMARK  528  A    between atoms: _1753  and  _1754
REMARK  529  A    between atoms: _1753  and  _1755
REMARK  530  A    between atoms: _1754  and  _1756
REMARK  531  A    between atoms: _1768  and  _1769
REMARK  532  A    between atoms: _1769  and  _1772
REMARK  533  A    between atoms: _1772  and  _1773
REMARK  534  A    between atoms: _1791  and  _1793
REMARK  535  A    between atoms: _1792  and  _1794
REMARK  536  A    between atoms: _1814  and  _1815
REMARK  537  A    between atoms: _1814  and  _1817
REMARK  538  A    between atoms: _1817  and  _1818
REMARK  539  A    between atoms: _1817  and  _1819
REMARK  540  A    between atoms: _1818  and  _1820
REMARK  541  A    between atoms: _1833  and  _1834
REMARK  542  A    between atoms: _1834  and  _1835
REMARK  543  A    between atoms: _1840  and  _1841
REMARK  544  A    between atoms: _1841  and  _1842
REMARK  545  A    between atoms: _1841  and  _1844
REMARK  546  A    between atoms: _1844  and  _1845
REMARK  547  A    between atoms: _1845  and  _1846
REMARK  548  A    between atoms: _1857  and  _1858
REMARK  549  A    between atoms: _1858  and  _1859
REMARK  550  A    between atoms: _1858  and  _1861
REMARK  551  A    between atoms: _1861  and  _1862
REMARK  552  A    between atoms: _1877  and  _1878
REMARK  553  A    between atoms: _1878  and  _1879
REMARK  554  A    between atoms: _1884  and  _1885
REMARK  555  A    between atoms: _1885  and  _1886
REMARK  556  A    between atoms: _1885  and  _1888
REMARK  557  A    between atoms: _1888  and  _1889
REMARK  558  A    between atoms: _1888  and  _1890
REMARK  559  A    between atoms: _1900  and  _1901
REMARK  560  A    between atoms: _1901  and  _1902
REMARK  561  A    between atoms: _1907  and  _1908
REMARK  562  A    between atoms: _1908  and  _1909
REMARK  563  A    between atoms: _1908  and  _1911
REMARK  564  A    between atoms: _1911  and  _1912
REMARK  565  A    between atoms: _1927  and  _1928
REMARK  566  A    between atoms: _1928  and  _1929
REMARK  567  A    between atoms: _1928  and  _1931
REMARK  568  A    between atoms: _1931  and  _1932
REMARK  569  A    between atoms: _1937  and  _1938
REMARK  570  A    between atoms: _1948  and  _1949
REMARK  571  A    between atoms: _1949  and  _1950
REMARK  572  A    between atoms: _1949  and  _1952
REMARK  573  A    between atoms: _1952  and  _1953
REMARK  574  A    between atoms: _1959  and  _1960
REMARK  575  A    between atoms: _1960  and  _1961
REMARK  576  A    between atoms: _1960  and  _1963
REMARK  577  A    between atoms: _1969  and  _1970
REMARK  578  A    between atoms: _1970  and  _1971
REMARK  579  A    between atoms: _1970  and  _1973
REMARK  580  A    between atoms: _1973  and  _1974
REMARK  581  A    between atoms: _1979  and  _1980
REMARK  582  A    between atoms: _1990  and  _1991
REMARK  583  A    between atoms: _1991  and  _1992
REMARK  584  A    between atoms: _1991  and  _1994
REMARK  585  A    between atoms: _1994  and  _1995
REMARK  586  A    between atoms: _1995  and  _1996
REMARK  587  A    between atoms: _1995  and  _1997
REMARK  588  A    between atoms: _2009  and  _2010
REMARK  589  A    between atoms: _2010  and  _2011
REMARK  590  A    between atoms: _2010  and  _2013
REMARK  591  A    between atoms: _2013  and  _2014
REMARK  592  A    between atoms: _2013  and  _2015
REMARK  593  A    between atoms: _2025  and  _2026
REMARK  594  A    between atoms: _2026  and  _2027
REMARK  595  A    between atoms: _2026  and  _2029
REMARK  596  A    between atoms: _2035  and  _2036
REMARK  597  A    between atoms: _2036  and  _2037
REMARK  598  A    between atoms: _2036  and  _2039
REMARK  599  A    between atoms: _2039  and  _2040
REMARK  600  A    between atoms: _2040  and  _2041
REMARK  601  A    between atoms: _2050  and  _2051
REMARK  602  A    between atoms: _2051  and  _2052
REMARK  603  A    between atoms: _2051  and  _2054
REMARK  604  A    between atoms: _2054  and  _2055
REMARK  605  A    between atoms: _2055  and  _2056
REMARK  606  A    between atoms: _2056  and  _2057
REMARK  607  A    between atoms: _2057  and  _2058
REMARK  608  A    between atoms: _2072  and  _2073
REMARK  609  A    between atoms: _2073  and  _2074
REMARK  610  A    between atoms: _2073  and  _2076
REMARK  611  A    between atoms: _2076  and  _2077
REMARK  612  A    between atoms: _2076  and  _2078
REMARK  613  A    between atoms: _2088  and  _2089
REMARK  614  A    between atoms: _2089  and  _2090
REMARK  615  A    between atoms: _2089  and  _2092
REMARK  616  A    between atoms: _2092  and  _2093
REMARK  617  A    between atoms: _2092  and  _2094
REMARK  618  A    between atoms: _2102  and  _2103
REMARK  619  A    between atoms: _2103  and  _2104
REMARK  620  A    between atoms: _2103  and  _2106
REMARK  621  A    between atoms: _2106  and  _2107
REMARK  622  A    between atoms: _2106  and  _2108
REMARK  623  A    between atoms: _2118  and  _2119
REMARK  624  A    between atoms: _2119  and  _2120
REMARK  625  A    between atoms: _2119  and  _2122
REMARK  626  A    between atoms: _2122  and  _2123
REMARK  627  A    between atoms: _2122  and  _2124
REMARK  628  A    between atoms: _2123  and  _2125
REMARK  629  A    between atoms: _2137  and  _2138
REMARK  630  A    between atoms: _2138  and  _2139
REMARK  631  A    between atoms: _2138  and  _2141
REMARK  632  A    between atoms: _2141  and  _2142
REMARK  633  A    between atoms: _2141  and  _2143
REMARK  634  A    between atoms: _2151  and  _2152
REMARK  635  A    between atoms: _2152  and  _2153
REMARK  636  A    between atoms: _2152  and  _2155
REMARK  637  A    between atoms: _2155  and  _2156
REMARK  638  A    between atoms: _2156  and  _2157
REMARK  639  A    between atoms: _2157  and  _2158
REMARK  640  A    between atoms: _2158  and  _2159
REMARK  641  A    between atoms: _2173  and  _2174
REMARK  642  A    between atoms: _2174  and  _2175
REMARK  643  A    between atoms: _2174  and  _2177
REMARK  644  A    between atoms: _2177  and  _2178
REMARK  645  A    between atoms: _2190  and  _2191
REMARK  646  A    between atoms: _2191  and  _2192
REMARK  647  A    between atoms: _2191  and  _2194
REMARK  648  A    between atoms: _2194  and  _2195
REMARK  649  A    between atoms: _2204  and  _2205
REMARK  650  A    between atoms: _2205  and  _2206
REMARK  651  A    between atoms: _2205  and  _2208
REMARK  652  A    between atoms: _2208  and  _2209
REMARK  653  A    between atoms: _2216  and  _2217
REMARK  654  A    between atoms: _2217  and  _2218
REMARK  655  A    between atoms: _2217  and  _2220
REMARK  656  A    between atoms: _2220  and  _2221
REMARK  657  A    between atoms: _2228  and  _2229
REMARK  658  A    between atoms: _2229  and  _2230
REMARK  659  A    between atoms: _2229  and  _2232
REMARK  660  A    between atoms: _2232  and  _2233
REMARK  661  A    between atoms: _2233  and  _2234
REMARK  662  A    between atoms: _2243  and  _2244
REMARK  663  A    between atoms: _2244  and  _2245
REMARK  664  A    between atoms: _2244  and  _2247
REMARK  665  A    between atoms: _2247  and  _2248
REMARK  666  A    between atoms: _2248  and  _2249
REMARK  667  A    between atoms: _2260  and  _2261
REMARK  668  A    between atoms: _2261  and  _2262
REMARK  669  A    between atoms: _2261  and  _2264
REMARK  670  A    between atoms: _2264  and  _2265
REMARK  671  A    between atoms: _2270  and  _2271
REMARK  672  A    between atoms: _2281  and  _2282
REMARK  673  A    between atoms: _2282  and  _2283
REMARK  674  A    between atoms: _2282  and  _2285
REMARK  675  A    between atoms: _2291  and  _2292
REMARK  676  A    between atoms: _2292  and  _2293
REMARK  677  A    between atoms: _2292  and  _2295
REMARK  678  A    between atoms: _2295  and  _2296
REMARK  679  A    between atoms: _2315  and  _2316
REMARK  680  A    between atoms: _2316  and  _2317
REMARK  681  A    between atoms: _2316  and  _2319
REMARK  682  A    between atoms: _2319  and  _2320
REMARK  683  A    between atoms: _2320  and  _2321
REMARK  684  A    between atoms: _2330  and  _2331
REMARK  685  A    between atoms: _2331  and  _2332
REMARK  686  A    between atoms: _2331  and  _2334
REMARK  687  A    between atoms: _2334  and  _2335
REMARK  688  A    between atoms: _2341  and  _2342
REMARK  689  A    between atoms: _2342  and  _2343
REMARK  690  A    between atoms: _2342  and  _2345
REMARK  691  A    between atoms: _2345  and  _2346
REMARK  692  A    between atoms: _2352  and  _2353
REMARK  693  A    between atoms: _2353  and  _2354
REMARK  694  A    between atoms: _2353  and  _2356
REMARK  695  A    between atoms: _2362  and  _2363
REMARK  696  A    between atoms: _2363  and  _2364
REMARK  697  A    between atoms: _2369  and  _2370
REMARK  698  A    between atoms: _2370  and  _2371
REMARK  699  A    between atoms: _2376  and  _2377
REMARK  700  A    between atoms: _2377  and  _2378
REMARK  701  A    between atoms: _2377  and  _2380
REMARK  702  A    between atoms: _2380  and  _2381
REMARK  703  A    between atoms: _2387  and  _2388
REMARK  704  A    between atoms: _2388  and  _2389
REMARK  705  A    between atoms: _2388  and  _2391
REMARK  706  A    between atoms: _2391  and  _2392
REMARK  707  A    between atoms: _2407  and  _2408
REMARK  708  A    between atoms: _2408  and  _2409
REMARK  709  A    between atoms: _2408  and  _2411
REMARK  710  A    between atoms: _2411  and  _2412
REMARK  711  A    between atoms: _2411  and  _2413
REMARK  712  A    between atoms: _2421  and  _2422
REMARK  713  A    between atoms: _2422  and  _2423
REMARK  714  A    between atoms: _2422  and  _2425
REMARK  715  A    between atoms: _2425  and  _2426
REMARK  716  A    between atoms: _2425  and  _2427
REMARK  717  A    between atoms: _2437  and  _2438
REMARK  718  A    between atoms: _2438  and  _2439
REMARK  719  A    between atoms: _2438  and  _2441
REMARK  720  A    between atoms: _2441  and  _2442
REMARK  721  A    between atoms: _2442  and  _2443
REMARK  722  A    between atoms: _2443  and  _2444
REMARK  723  A    between atoms: _2461  and  _2462
REMARK  724  A    between atoms: _2462  and  _2463
REMARK  725  A    between atoms: _2462  and  _2465
REMARK  726  A    between atoms: _2465  and  _2466
REMARK  727  A    between atoms: _2465  and  _2467
REMARK  728  A    between atoms: _2475  and  _2476
REMARK  729  A    between atoms: _2476  and  _2477
REMARK  730  A    between atoms: _2476  and  _2479
REMARK  731  A    between atoms: _2479  and  _2480
REMARK  732  A    between atoms: _2487  and  _2488
REMARK  733  A    between atoms: _2488  and  _2489
REMARK  734  A    between atoms: _2488  and  _2491
REMARK  735  A    between atoms: _2491  and  _2492
REMARK  736  A    between atoms: _2491  and  _2493
REMARK  737  A    between atoms: _2501  and  _2502
REMARK  738  A    between atoms: _2502  and  _2503
REMARK  739  A    between atoms: _2508  and  _2509
REMARK  740  A    between atoms: _2509  and  _2510
REMARK  741  A    between atoms: _2509  and  _2512
REMARK  742  A    between atoms: _2512  and  _2513
REMARK  743  A    between atoms: _2513  and  _2514
REMARK  744  A    between atoms: _2524  and  _2525
REMARK  745  A    between atoms: _2537  and  _2538
REMARK  746  A    between atoms: _2538  and  _2539
REMARK  747  A    between atoms: _2538  and  _2541
REMARK  748  A    between atoms: _2541  and  _2542
REMARK  749  A    between atoms: _2542  and  _2543
REMARK  750  A    between atoms: _2543  and  _2544
REMARK  751  A    between atoms: _2554  and  _2555
REMARK  752  A    between atoms: _2555  and  _2556
REMARK  753  A    between atoms: _2561  and  _2562
REMARK  754  A    between atoms: _2562  and  _2563
REMARK  755  A    between atoms: _2562  and  _2565
REMARK  756  A    between atoms: _2565  and  _2566
REMARK  757  A    between atoms: _2566  and  _2567
REMARK  758  A    between atoms: _2567  and  _2568
REMARK  759  A    between atoms: _2585  and  _2586
REMARK  760  A    between atoms: _2586  and  _2587
REMARK  761  A    between atoms: _2592  and  _2593
REMARK  762  A    between atoms: _2593  and  _2594
REMARK  763  A    between atoms: _2593  and  _2596
REMARK  764  A    between atoms: _2596  and  _2597
REMARK  765  A    between atoms: _2596  and  _2598
REMARK  766  A    between atoms: _2606  and  _2607
REMARK  767  A    between atoms: _2607  and  _2608
REMARK  768  A    between atoms: _2607  and  _2610
REMARK  769  A    between atoms: _2610  and  _2611
REMARK  770  A    between atoms: _2611  and  _2612
REMARK  771  A    between atoms: _2612  and  _2613
REMARK  772  A    between atoms: _2613  and  _2614
REMARK  773  A    between atoms: _2628  and  _2629
REMARK  774  A    between atoms: _2629  and  _2630
REMARK  775  A    between atoms: _2629  and  _2632
REMARK  776  A    between atoms: _2632  and  _2633
REMARK  777  A    between atoms: _2632  and  _2634
REMARK  778  A    between atoms: _2644  and  _2645
REMARK  779  A    between atoms: _2645  and  _2646
REMARK  780  A    between atoms: _2645  and  _2648
REMARK  781  A    between atoms: _2648  and  _2649
REMARK  782  A    between atoms: _2648  and  _2650
REMARK  783  A    between atoms: _2649  and  _2651
REMARK  784  A    between atoms: _2663  and  _2664
REMARK  785  A    between atoms: _2664  and  _2665
REMARK  786  A    between atoms: _2664  and  _2667
REMARK  787  A    between atoms: _2667  and  _2668
REMARK  788  A    between atoms: _2668  and  _2669
REMARK  789  A    between atoms: _2668  and  _2670
REMARK  790  A    between atoms: _2682  and  _2683
REMARK  791  A    between atoms: _2683  and  _2684
REMARK  792  A    between atoms: _2683  and  _2686
REMARK  793  A    between atoms: _2686  and  _2687
REMARK  794  A    between atoms: _2699  and  _2700
REMARK  795  A    between atoms: _2700  and  _2701
REMARK  796  A    between atoms: _2700  and  _2703
REMARK  797  A    between atoms: _2703  and  _2704
REMARK  798  A    between atoms: _2704  and  _2705
REMARK  799  A    between atoms: _2704  and  _2706
REMARK  800  A    between atoms: _2718  and  _2719
REMARK  801  A    between atoms: _2719  and  _2720
REMARK  802  A    between atoms: _2719  and  _2722
REMARK  803  A    between atoms: _2722  and  _2723
REMARK  804  A    between atoms: _2723  and  _2724
REMARK  805  A    between atoms: _2724  and  _2725
REMARK  806  A    between atoms: _2725  and  _2726
REMARK  807  A    between atoms: _2740  and  _2741
REMARK  808  A    between atoms: _2741  and  _2742
REMARK  809  A    between atoms: _2741  and  _2744
REMARK  810  A    between atoms: _2744  and  _2745
REMARK  811  A    between atoms: _2745  and  _2746
REMARK  812  A    between atoms: _2755  and  _2756
REMARK  813  A    between atoms: _2756  and  _2757
REMARK  814  A    between atoms: _2756  and  _2759
REMARK  815  A    between atoms: _2759  and  _2760
REMARK  816  A    between atoms: _2767  and  _2768
REMARK  817  A    between atoms: _2768  and  _2769
REMARK  818  A    between atoms: _2768  and  _2771
REMARK  819  A    between atoms: _2771  and  _2772
REMARK  820  A    between atoms: _2772  and  _2773
REMARK  821  A    between atoms: _2784  and  _2785
REMARK  822  A    between atoms: _2785  and  _2786
REMARK  823  A    between atoms: _2785  and  _2788
REMARK  824  A    between atoms: _2788  and  _2789
REMARK  825  A    between atoms: _2788  and  _2790
REMARK  826  A    between atoms: _2798  and  _2799
REMARK  827  A    between atoms: _2799  and  _2800
REMARK  828  A    between atoms: _2799  and  _2802
REMARK  829  A    between atoms: _2802  and  _2803
REMARK  830  A    between atoms: _2803  and  _2804
REMARK  831  A    between atoms: _2813  and  _2814
REMARK  832  A    between atoms: _2814  and  _2815
REMARK  833  A    between atoms: _2814  and  _2817
REMARK  834  A    between atoms: _2817  and  _2818
REMARK  835  A    between atoms: _2823  and  _2824
REMARK  836  A    between atoms: _2834  and  _2835
REMARK  837  A    between atoms: _2835  and  _2838
REMARK  838  A    between atoms: _2838  and  _2839
REMARK  839  A    between atoms: _2839  and  _2840
REMARK  840  A    between atoms: _2839  and  _2841
REMARK  841  A    between atoms: _2884  and  _2885
REMARK  842  A    between atoms: _2884  and  _2887
REMARK  843  A    between atoms: _2887  and  _2888
REMARK  844  A    between atoms: _2888  and  _2889
REMARK  845  A    between atoms: _2899  and  _2900
REMARK  846  A    between atoms: _2900  and  _2901
REMARK  847  A    between atoms: _2900  and  _2903
REMARK  848  A    between atoms: _2903  and  _2904
REMARK  849  A    between atoms: _2904  and  _2905
REMARK  850  A    between atoms: _2905  and  _2906
REMARK  851  A    between atoms: _2923  and  _2924
REMARK  852  A    between atoms: _2924  and  _2925
REMARK  853  A    between atoms: _2924  and  _2927
REMARK  854  A    between atoms: _2927  and  _2928
REMARK  855  A    between atoms: _2928  and  _2929
REMARK  856  A    between atoms: _2929  and  _2930
REMARK  857  A    between atoms: _2947  and  _2948
REMARK  858  A    between atoms: _2948  and  _2949
REMARK  859  A    between atoms: _2948  and  _2951
REMARK  860  A    between atoms: _2951  and  _2952
REMARK  861  A    between atoms: _2951  and  _2953
REMARK  862  A    between atoms: _2952  and  _2954
REMARK  863  A    between atoms: _2966  and  _2967
REMARK  864  A    between atoms: _2967  and  _2968
REMARK  865  A    between atoms: _2967  and  _2970
REMARK  866  A    between atoms: _2970  and  _2971
REMARK  867  A    between atoms: _2971  and  _2972
REMARK  868  A    between atoms: _2972  and  _2973
REMARK  869  A    between atoms: _2973  and  _2974
REMARK  870  A    between atoms: _2988  and  _2989
REMARK  871  A    between atoms: _2989  and  _2990
REMARK  872  A    between atoms: _2989  and  _2992
REMARK  873  A    between atoms: _2992  and  _2993
REMARK  874  A    between atoms: _2993  and  _2994
REMARK  875  A    between atoms: _3003  and  _3004
REMARK  876  A    between atoms: _3004  and  _3005
REMARK  877  A    between atoms: _3004  and  _3007
REMARK  878  A    between atoms: _3007  and  _3008
REMARK  879  A    between atoms: _3007  and  _3009
REMARK  880  A    between atoms: _3008  and  _3010
REMARK  881  A    between atoms: _3022  and  _3023
REMARK  882  A    between atoms: _3023  and  _3024
REMARK  883  A    between atoms: _3023  and  _3026
REMARK  884  A    between atoms: _3026  and  _3027
REMARK  885  A    between atoms: _3026  and  _3028
REMARK  886  A    between atoms: _3038  and  _3039
REMARK  887  A    between atoms: _3039  and  _3040
REMARK  888  A    between atoms: _3039  and  _3042
REMARK  889  A    between atoms: _3042  and  _3043
REMARK  890  A    between atoms: _3043  and  _3044
REMARK  891  A    between atoms: _3044  and  _3045
REMARK  892  A    between atoms: _3045  and  _3046
REMARK  893  A    between atoms: _3060  and  _3061
REMARK  894  A    between atoms: _3061  and  _3062
REMARK  895  A    between atoms: _3061  and  _3064
REMARK  896  A    between atoms: _3064  and  _3065
REMARK  897  A    between atoms: _3065  and  _3066
REMARK  898  A    between atoms: _3066  and  _3067
REMARK  899  A    between atoms: _3067  and  _3068
REMARK  900  A    between atoms: _3082  and  _3083
REMARK  901  A    between atoms: _3083  and  _3084
REMARK  902  A    between atoms: _3083  and  _3086
REMARK  903  A    between atoms: _3086  and  _3087
REMARK  904  A    between atoms: _3099  and  _3100
REMARK  905  A    between atoms: _3100  and  _3101
REMARK  906  A    between atoms: _3100  and  _3103
REMARK  907  A    between atoms: _3103  and  _3104
REMARK  908  A    between atoms: _3110  and  _3111
REMARK  909  A    between atoms: _3111  and  _3112
REMARK  910  A    between atoms: _3111  and  _3114
REMARK  911  A    between atoms: _3114  and  _3115
REMARK  912  A    between atoms: _3115  and  _3116
REMARK  913  A    between atoms: _3127  and  _3128
REMARK  914  A    between atoms: _3128  and  _3129
REMARK  915  A    between atoms: _3128  and  _3131
REMARK  916  A    between atoms: _3131  and  _3132
REMARK  917  A    between atoms: _3147  and  _3148
REMARK  918  A    between atoms: _3148  and  _3149
REMARK  919  A    between atoms: _3148  and  _3151
REMARK  920  A    between atoms: _3151  and  _3152
REMARK  921  A    between atoms: _3151  and  _3153
REMARK  922  A    between atoms: _3152  and  _3154
REMARK  923  A    between atoms: _3166  and  _3167
REMARK  924  A    between atoms: _3167  and  _3168
REMARK  925  A    between atoms: _3173  and  _3174
REMARK  926  A    between atoms: _3174  and  _3175
REMARK  927  A    between atoms: _3174  and  _3177
REMARK  928  A    between atoms: _3177  and  _3178
REMARK  929  A    between atoms: _3183  and  _3184
REMARK  930  A    between atoms: _3195  and  _3196
REMARK  931  A    between atoms: _3208  and  _3209
REMARK  932  A    between atoms: _3209  and  _3210
REMARK  933  A    between atoms: _3209  and  _3212
REMARK  934  A    between atoms: _3212  and  _3213
REMARK  935  A    between atoms: _3212  and  _3214
REMARK  936  A    between atoms: _3213  and  _3215
REMARK  937  A    between atoms: _3227  and  _3228
REMARK  938  A    between atoms: _3228  and  _3229
REMARK  939  A    between atoms: _3228  and  _3231
REMARK  940  A    between atoms: _3231  and  _3232
REMARK  941  A    between atoms: _3231  and  _3233
REMARK  942  A    between atoms: _3241  and  _3242
REMARK  943  A    between atoms: _3242  and  _3243
REMARK  944  A    between atoms: _3242  and  _3245
REMARK  945  A    between atoms: _3245  and  _3246
REMARK  946  A    between atoms: _3246  and  _3247
REMARK  947  A    between atoms: _3246  and  _3248
REMARK  948  A    between atoms: _3260  and  _3261
REMARK  949  A    between atoms: _3261  and  _3262
REMARK  950  A    between atoms: _3261  and  _3264
REMARK  951  A    between atoms: _3264  and  _3265
REMARK  952  A    between atoms: _3280  and  _3281
REMARK  953  A    between atoms: _3281  and  _3282
REMARK  954  A    between atoms: _3281  and  _3284
REMARK  955  A    between atoms: _3284  and  _3285
REMARK  956  A    between atoms: _3284  and  _3286
REMARK  957  A    between atoms: _3296  and  _3297
REMARK  958  A    between atoms: _3297  and  _3298
REMARK  959  A    between atoms: _3297  and  _3300
REMARK  960  A    between atoms: _3300  and  _3301
REMARK  961  A    between atoms: _3301  and  _3302
REMARK                            x       y       z     vdW  Elec       q    Type
REMARK                         _______ _______ _______ _____ _____    ______ ____
ROOT
ATOM      1  N   UNL     1      11.900  32.415  17.533  0.00  0.00    -0.163 NA
ATOM      2  H   UNL     1      11.130  32.731  17.000  0.00  0.00    +0.163 HD
ENDROOT
TORSDOF 0
REMARK  Name = /Users/mlugowska/PhD/ML_residence_time_prediction/protein_files/5J20_protein.pdb
REMARK  961 active torsions:
REMARK  status: ('A' for Active; 'I' for Inactive)
REMARK    1  A    between atoms: _2  and  _3
REMARK    2  A    between atoms: _2  and  _5
REMARK    3  A    between atoms: _10  and  _11
REMARK    4  A    between atoms: _11  and  _12
REMARK    5  A    between atoms: _11  and  _14
REMARK    6  A    between atoms: _14  and  _15
REMARK    7  A    between atoms: _14  and  _16
REMARK    8  A    between atoms: _26  and  _27
REMARK    9  A    between atoms: _27  and  _28
REMARK   10  A    between atoms: _27  and  _30
REMARK   11  A    between atoms: _30  and  _31
REMARK   12  A    between atoms: _31  and  _32
REMARK   13  A    between atoms: _41  and  _42
REMARK   14  A    between atoms: _42  and  _43
REMARK   15  A    between atoms: _42  and  _45
REMARK   16  A    between atoms: _45  and  _46
REMARK   17  A    between atoms: _45  and  _47
REMARK   18  A    between atoms: _55  and  _56
REMARK   19  A    between atoms: _56  and  _57
REMARK   20  A    between atoms: _56  and  _59
REMARK   21  A    between atoms: _59  and  _60
REMARK   22  A    between atoms: _75  and  _76
REMARK   23  A    between atoms: _76  and  _77
REMARK   24  A    between atoms: _76  and  _79
REMARK   25  A    between atoms: _85  and  _86
REMARK   26  A    between atoms: _86  and  _87
REMARK   27  A    between atoms: _86  and  _89
REMARK   28  A    between atoms: _89  and  _90
REMARK   29  A    between atoms: _105  and  _106
REMARK   30  A    between atoms: _106  and  _107
REMARK   31  A    between atoms: _106  and  _109
REMARK   32  A    between atoms: _109  and  _110
REMARK   33  A    between atoms: _110  and  _111
REMARK   34  A    between atoms: _122  and  _123
REMARK   35  A    between atoms: _123  and  _124
REMARK   36  A    between atoms: _123  and  _126
REMARK   37  A    between atoms: _132  and  _133
REMARK   38  A    between atoms: _133  and  _134
REMARK   39  A    between atoms: _133  and  _136
REMARK   40  A    between atoms: _136  and  _137
REMARK   41  A    between atoms: _137  and  _138
REMARK   42  A    between atoms: _147  and  _148
REMARK   43  A    between atoms: _148  and  _149
REMARK   44  A    between atoms: _148  and  _151
REMARK   45  A    between atoms: _151  and  _152
REMARK   46  A    between atoms: _151  and  _153
REMARK   47  A    between atoms: _152  and  _154
REMARK   48  A    between atoms: _166  and  _167
REMARK   49  A    between atoms: _167  and  _168
REMARK   50  A    between atoms: _167  and  _170
REMARK   51  A    between atoms: _176  and  _177
REMARK   52  A    between atoms: _177  and  _178
REMARK   53  A    between atoms: _177  and  _180
REMARK   54  A    between atoms: _180  and  _181
REMARK   55  A    between atoms: _181  and  _182
REMARK   56  A    between atoms: _193  and  _194
REMARK   57  A    between atoms: _194  and  _195
REMARK   58  A    between atoms: _194  and  _197
REMARK   59  A    between atoms: _197  and  _198
REMARK   60  A    between atoms: _198  and  _199
REMARK   61  A    between atoms: _198  and  _200
REMARK   62  A    between atoms: _212  and  _213
REMARK   63  A    between atoms: _213  and  _214
REMARK   64  A    between atoms: _213  and  _216
REMARK   65  A    between atoms: _216  and  _217
REMARK   66  A    between atoms: _217  and  _218
REMARK   67  A    between atoms: _218  and  _219
REMARK   68  A    between atoms: _229  and  _230
REMARK   69  A    between atoms: _230  and  _231
REMARK   70  A    between atoms: _230  and  _233
REMARK   71  A    between atoms: _233  and  _234
REMARK   72  A    between atoms: _240  and  _241
REMARK   73  A    between atoms: _241  and  _242
REMARK   74  A    between atoms: _241  and  _244
REMARK   75  A    between atoms: _244  and  _245
REMARK   76  A    between atoms: _245  and  _246
REMARK   77  A    between atoms: _245  and  _247
REMARK   78  A    between atoms: _259  and  _260
REMARK   79  A    between atoms: _260  and  _261
REMARK   80  A    between atoms: _260  and  _263
REMARK   81  A    between atoms: _263  and  _264
REMARK   82  A    between atoms: _263  and  _265
REMARK   83  A    between atoms: _264  and  _266
REMARK   84  A    between atoms: _278  and  _279
REMARK   85  A    between atoms: _279  and  _280
REMARK   86  A    between atoms: _279  and  _282
REMARK   87  A    between atoms: _282  and  _283
REMARK   88  A    between atoms: _282  and  _284
REMARK   89  A    between atoms: _283  and  _285
REMARK   90  A    between atoms: _297  and  _298
REMARK   91  A    between atoms: _298  and  _299
REMARK   92  A    between atoms: _298  and  _301
REMARK   93  A    between atoms: _301  and  _302
REMARK   94  A    between atoms: _311  and  _312
REMARK   95  A    between atoms: _312  and  _313
REMARK   96  A    between atoms: _312  and  _315
REMARK   97  A    between atoms: _315  and  _316
REMARK   98  A    between atoms: _315  and  _317
REMARK   99  A    between atoms: _325  and  _326
REMARK  100  A    between atoms: _326  and  _327
REMARK  101  A    between atoms: _326  and  _329
REMARK  102  A    between atoms: _329  and  _330
REMARK  103  A    between atoms: _345  and  _346
REMARK  104  A    between atoms: _346  and  _347
REMARK  105  A    between atoms: _346  and  _349
REMARK  106  A    between atoms: _349  and  _350
REMARK  107  A    between atoms: _355  and  _356
REMARK  108  A    between atoms: _366  and  _367
REMARK  109  A    between atoms: _367  and  _368
REMARK  110  A    between atoms: _367  and  _370
REMARK  111  A    between atoms: _370  and  _371
REMARK  112  A    between atoms: _377  and  _378
REMARK  113  A    between atoms: _378  and  _379
REMARK  114  A    between atoms: _378  and  _381
REMARK  115  A    between atoms: _381  and  _382
REMARK  116  A    between atoms: _391  and  _392
REMARK  117  A    between atoms: _392  and  _393
REMARK  118  A    between atoms: _392  and  _395
REMARK  119  A    between atoms: _395  and  _396
REMARK  120  A    between atoms: _396  and  _397
REMARK  121  A    between atoms: _397  and  _398
REMARK  122  A    between atoms: _398  and  _399
REMARK  123  A    between atoms: _413  and  _414
REMARK  124  A    between atoms: _414  and  _415
REMARK  125  A    between atoms: _414  and  _417
REMARK  126  A    between atoms: _417  and  _418
REMARK  127  A    between atoms: _418  and  _419
REMARK  128  A    between atoms: _428  and  _429
REMARK  129  A    between atoms: _429  and  _430
REMARK  130  A    between atoms: _429  and  _432
REMARK  131  A    between atoms: _432  and  _433
REMARK  132  A    between atoms: _432  and  _434
REMARK  133  A    between atoms: _433  and  _435
REMARK  134  A    between atoms: _447  and  _448
REMARK  135  A    between atoms: _448  and  _449
REMARK  136  A    between atoms: _448  and  _451
REMARK  137  A    between atoms: _451  and  _452
REMARK  138  A    between atoms: _467  and  _468
REMARK  139  A    between atoms: _468  and  _469
REMARK  140  A    between atoms: _468  and  _471
REMARK  141  A    between atoms: _471  and  _472
REMARK  142  A    between atoms: _472  and  _473
REMARK  143  A    between atoms: _472  and  _474
REMARK  144  A    between atoms: _486  and  _487
REMARK  145  A    between atoms: _487  and  _488
REMARK  146  A    between atoms: _487  and  _490
REMARK  147  A    between atoms: _490  and  _491
REMARK  148  A    between atoms: _491  and  _492
REMARK  149  A    between atoms: _492  and  _493
REMARK  150  A    between atoms: _510  and  _511
REMARK  151  A    between atoms: _511  and  _512
REMARK  152  A    between atoms: _511  and  _514
REMARK  153  A    between atoms: _514  and  _515
REMARK  154  A    between atoms: _515  and  _516
REMARK  155  A    between atoms: _525  and  _526
REMARK  156  A    between atoms: _526  and  _527
REMARK  157  A    between atoms: _526  and  _529
REMARK  158  A    between atoms: _529  and  _530
REMARK  159  A    between atoms: _530  and  _531
REMARK  160  A    between atoms: _530  and  _532
REMARK  161  A    between atoms: _544  and  _545
REMARK  162  A    between atoms: _545  and  _546
REMARK  163  A    between atoms: _545  and  _548
REMARK  164  A    between atoms: _548  and  _549
REMARK  165  A    between atoms: _548  and  _550
REMARK  166  A    between atoms: _549  and  _551
REMARK  167  A    between atoms: _563  and  _564
REMARK  168  A    between atoms: _564  and  _565
REMARK  169  A    between atoms: _564  and  _567
REMARK  170  A    between atoms: _567  and  _568
REMARK  171  A    between atoms: _574  and  _575
REMARK  172  A    between atoms: _575  and  _576
REMARK  173  A    between atoms: _575  and  _578
REMARK  174  A    between atoms: _578  and  _579
REMARK  175  A    between atoms: _588  and  _589
REMARK  176  A    between atoms: _589  and  _590
REMARK  177  A    between atoms: _589  and  _592
REMARK  178  A    between atoms: _592  and  _593
REMARK  179  A    between atoms: _599  and  _600
REMARK  180  A    between atoms: _600  and  _601
REMARK  181  A    between atoms: _600  and  _603
REMARK  182  A    between atoms: _603  and  _604
REMARK  183  A    between atoms: _610  and  _611
REMARK  184  A    between atoms: _611  and  _612
REMARK  185  A    between atoms: _611  and  _614
REMARK  186  A    between atoms: _614  and  _615
REMARK  187  A    between atoms: _622  and  _623
REMARK  188  A    between atoms: _623  and  _624
REMARK  189  A    between atoms: _623  and  _626
REMARK  190  A    between atoms: _632  and  _633
REMARK  191  A    between atoms: _633  and  _634
REMARK  192  A    between atoms: _633  and  _636
REMARK  193  A    between atoms: _636  and  _637
REMARK  194  A    between atoms: _637  and  _638
REMARK  195  A    between atoms: _637  and  _639
REMARK  196  A    between atoms: _651  and  _652
REMARK  197  A    between atoms: _652  and  _653
REMARK  198  A    between atoms: _652  and  _655
REMARK  199  A    between atoms: _655  and  _656
REMARK  200  A    between atoms: _663  and  _664
REMARK  201  A    between atoms: _664  and  _665
REMARK  202  A    between atoms: _664  and  _667
REMARK  203  A    between atoms: _667  and  _668
REMARK  204  A    between atoms: _668  and  _669
REMARK  205  A    between atoms: _669  and  _670
REMARK  206  A    between atoms: _670  and  _671
REMARK  207  A    between atoms: _685  and  _686
REMARK  208  A    between atoms: _686  and  _687
REMARK  209  A    between atoms: _686  and  _689
REMARK  210  A    between atoms: _689  and  _690
REMARK  211  A    between atoms: _689  and  _691
REMARK  212  A    between atoms: _690  and  _692
REMARK  213  A    between atoms: _704  and  _705
REMARK  214  A    between atoms: _705  and  _706
REMARK  215  A    between atoms: _705  and  _708
REMARK  216  A    between atoms: _708  and  _709
REMARK  217  A    between atoms: _709  and  _710
REMARK  218  A    between atoms: _710  and  _711
REMARK  219  A    between atoms: _728  and  _729
REMARK  220  A    between atoms: _729  and  _730
REMARK  221  A    between atoms: _729  and  _732
REMARK  222  A    between atoms: _732  and  _733
REMARK  223  A    between atoms: _738  and  _739
REMARK  224  A    between atoms: _749  and  _750
REMARK  225  A    between atoms: _750  and  _751
REMARK  226  A    between atoms: _750  and  _753
REMARK  227  A    between atoms: _753  and  _754
REMARK  228  A    between atoms: _754  and  _755
REMARK  229  A    between atoms: _764  and  _765
REMARK  230  A    between atoms: _765  and  _766
REMARK  231  A    between atoms: _765  and  _768
REMARK  232  A    between atoms: _772  and  _773
REMARK  233  A    between atoms: _773  and  _774
REMARK  234  A    between atoms: _773  and  _776
REMARK  235  A    between atoms: _776  and  _777
REMARK  236  A    between atoms: _777  and  _778
REMARK  237  A    between atoms: _777  and  _779
REMARK  238  A    between atoms: _791  and  _792
REMARK  239  A    between atoms: _792  and  _793
REMARK  240  A    between atoms: _792  and  _795
REMARK  241  A    between atoms: _795  and  _796
REMARK  242  A    between atoms: _795  and  _797
REMARK  243  A    between atoms: _805  and  _806
REMARK  244  A    between atoms: _806  and  _807
REMARK  245  A    between atoms: _806  and  _809
REMARK  246  A    between atoms: _809  and  _810
REMARK  247  A    between atoms: _818  and  _819
REMARK  248  A    between atoms: _831  and  _832
REMARK  249  A    between atoms: _832  and  _833
REMARK  250  A    between atoms: _832  and  _835
REMARK  251  A    between atoms: _835  and  _836
REMARK  252  A    between atoms: _842  and  _843
REMARK  253  A    between atoms: _843  and  _844
REMARK  254  A    between atoms: _843  and  _846
REMARK  255  A    between atoms: _846  and  _847
REMARK  256  A    between atoms: _847  and  _848
REMARK  257  A    between atoms: _848  and  _849
REMARK  258  A    between atoms: _849  and  _850
REMARK  259  A    between atoms: _864  and  _865
REMARK  260  A    between atoms: _865  and  _866
REMARK  261  A    between atoms: _865  and  _868
REMARK  262  A    between atoms: _868  and  _869
REMARK  263  A    between atoms: _869  and  _870
REMARK  264  A    between atoms: _869  and  _871
REMARK  265  A    between atoms: _883  and  _884
REMARK  266  A    between atoms: _884  and  _885
REMARK  267  A    between atoms: _884  and  _887
REMARK  268  A    between atoms: _887  and  _888
REMARK  269  A    between atoms: _895  and  _896
REMARK  270  A    between atoms: _896  and  _897
REMARK  271  A    between atoms: _896  and  _899
REMARK  272  A    between atoms: _899  and  _900
REMARK  273  A    between atoms: _906  and  _907
REMARK  274  A    between atoms: _907  and  _908
REMARK  275  A    between atoms: _913  and  _914
REMARK  276  A    between atoms: _914  and  _915
REMARK  277  A    between atoms: _914  and  _917
REMARK  278  A    between atoms: _917  and  _918
REMARK  279  A    between atoms: _918  and  _919
REMARK  280  A    between atoms: _919  and  _920
REMARK  281  A    between atoms: _920  and  _921
REMARK  282  A    between atoms: _935  and  _936
REMARK  283  A    between atoms: _936  and  _937
REMARK  284  A    between atoms: _936  and  _939
REMARK  285  A    between atoms: _939  and  _940
REMARK  286  A    between atoms: _940  and  _941
REMARK  287  A    between atoms: _950  and  _951
REMARK  288  A    between atoms: _951  and  _952
REMARK  289  A    between atoms: _951  and  _954
REMARK  290  A    between atoms: _954  and  _955
REMARK  291  A    between atoms: _955  and  _956
REMARK  292  A    between atoms: _955  and  _957
REMARK  293  A    between atoms: _969  and  _970
REMARK  294  A    between atoms: _970  and  _971
REMARK  295  A    between atoms: _970  and  _973
REMARK  296  A    between atoms: _973  and  _974
REMARK  297  A    between atoms: _986  and  _987
REMARK  298  A    between atoms: _987  and  _988
REMARK  299  A    between atoms: _987  and  _990
REMARK  300  A    between atoms: _990  and  _991
REMARK  301  A    between atoms: _990  and  _992
REMARK  302  A    between atoms: _991  and  _993
REMARK  303  A    between atoms: _1005  and  _1006
REMARK  304  A    between atoms: _1006  and  _1007
REMARK  305  A    between atoms: _1006  and  _1009
REMARK  306  A    between atoms: _1009  and  _1010
REMARK  307  A    between atoms: _1019  and  _1020
REMARK  308  A    between atoms: _1020  and  _1021
REMARK  309  A    between atoms: _1020  and  _1023
REMARK  310  A    between atoms: _1023  and  _1024
REMARK  311  A    between atoms: _1024  and  _1025
REMARK  312  A    between atoms: _1024  and  _1026
REMARK  313  A    between atoms: _1038  and  _1039
REMARK  314  A    between atoms: _1039  and  _1040
REMARK  315  A    between atoms: _1039  and  _1042
REMARK  316  A    between atoms: _1042  and  _1043
REMARK  317  A    between atoms: _1042  and  _1044
REMARK  318  A    between atoms: _1043  and  _1045
REMARK  319  A    between atoms: _1058  and  _1059
REMARK  320  A    between atoms: _1071  and  _1072
REMARK  321  A    between atoms: _1072  and  _1073
REMARK  322  A    between atoms: _1072  and  _1075
REMARK  323  A    between atoms: _1075  and  _1076
REMARK  324  A    between atoms: _1085  and  _1086
REMARK  325  A    between atoms: _1086  and  _1087
REMARK  326  A    between atoms: _1086  and  _1089
REMARK  327  A    between atoms: _1089  and  _1090
REMARK  328  A    between atoms: _1090  and  _1091
REMARK  329  A    between atoms: _1091  and  _1092
REMARK  330  A    between atoms: _1092  and  _1093
REMARK  331  A    between atoms: _1107  and  _1108
REMARK  332  A    between atoms: _1108  and  _1109
REMARK  333  A    between atoms: _1108  and  _1111
REMARK  334  A    between atoms: _1111  and  _1112
REMARK  335  A    between atoms: _1112  and  _1113
REMARK  336  A    between atoms: _1124  and  _1125
REMARK  337  A    between atoms: _1125  and  _1126
REMARK  338  A    between atoms: _1125  and  _1128
REMARK  339  A    between atoms: _1128  and  _1129
REMARK  340  A    between atoms: _1136  and  _1137
REMARK  341  A    between atoms: _1137  and  _1138
REMARK  342  A    between atoms: _1137  and  _1140
REMARK  343  A    between atoms: _1140  and  _1141
REMARK  344  A    between atoms: _1141  and  _1142
REMARK  345  A    between atoms: _1142  and  _1143
REMARK  346  A    between atoms: _1160  and  _1161
REMARK  347  A    between atoms: _1161  and  _1162
REMARK  348  A    between atoms: _1161  and  _1164
REMARK  349  A    between atoms: _1164  and  _1165
REMARK  350  A    between atoms: _1164  and  _1166
REMARK  351  A    between atoms: _1174  and  _1175
REMARK  352  A    between atoms: _1175  and  _1176
REMARK  353  A    between atoms: _1175  and  _1178
REMARK  354  A    between atoms: _1178  and  _1179
REMARK  355  A    between atoms: _1179  and  _1180
REMARK  356  A    between atoms: _1179  and  _1181
REMARK  357  A    between atoms: _1193  and  _1194
REMARK  358  A    between atoms: _1194  and  _1195
REMARK  359  A    between atoms: _1194  and  _1197
REMARK  360  A    between atoms: _1197  and  _1198
REMARK  361  A    between atoms: _1197  and  _1199
REMARK  362  A    between atoms: _1207  and  _1208
REMARK  363  A    between atoms: _1208  and  _1209
REMARK  364  A    between atoms: _1208  and  _1211
REMARK  365  A    between atoms: _1211  and  _1212
REMARK  366  A    between atoms: _1211  and  _1213
REMARK  367  A    between atoms: _1212  and  _1214
REMARK  368  A    between atoms: _1226  and  _1227
REMARK  369  A    between atoms: _1227  and  _1228
REMARK  370  A    between atoms: _1227  and  _1230
REMARK  371  A    between atoms: _1230  and  _1231
REMARK  372  A    between atoms: _1230  and  _1232
REMARK  373  A    between atoms: _1242  and  _1243
REMARK  374  A    between atoms: _1243  and  _1244
REMARK  375  A    between atoms: _1243  and  _1246
REMARK  376  A    between atoms: _1246  and  _1247
REMARK  377  A    between atoms: _1254  and  _1255
REMARK  378  A    between atoms: _1255  and  _1256
REMARK  379  A    between atoms: _1255  and  _1258
REMARK  380  A    between atoms: _1258  and  _1259
REMARK  381  A    between atoms: _1258  and  _1260
REMARK  382  A    between atoms: _1268  and  _1269
REMARK  383  A    between atoms: _1269  and  _1270
REMARK  384  A    between atoms: _1275  and  _1276
REMARK  385  A    between atoms: _1276  and  _1277
REMARK  386  A    between atoms: _1276  and  _1279
REMARK  387  A    between atoms: _1279  and  _1280
REMARK  388  A    between atoms: _1279  and  _1281
REMARK  389  A    between atoms: _1280  and  _1282
REMARK  390  A    between atoms: _1294  and  _1295
REMARK  391  A    between atoms: _1295  and  _1296
REMARK  392  A    between atoms: _1301  and  _1302
REMARK  393  A    between atoms: _1302  and  _1303
REMARK  394  A    between atoms: _1302  and  _1305
REMARK  395  A    between atoms: _1305  and  _1306
REMARK  396  A    between atoms: _1306  and  _1307
REMARK  397  A    between atoms: _1307  and  _1308
REMARK  398  A    between atoms: _1318  and  _1319
REMARK  399  A    between atoms: _1319  and  _1320
REMARK  400  A    between atoms: _1319  and  _1322
REMARK  401  A    between atoms: _1322  and  _1323
REMARK  402  A    between atoms: _1322  and  _1324
REMARK  403  A    between atoms: _1332  and  _1333
REMARK  404  A    between atoms: _1333  and  _1334
REMARK  405  A    between atoms: _1333  and  _1336
REMARK  406  A    between atoms: _1336  and  _1337
REMARK  407  A    between atoms: _1337  and  _1338
REMARK  408  A    between atoms: _1338  and  _1339
REMARK  409  A    between atoms: _1339  and  _1340
REMARK  410  A    between atoms: _1354  and  _1355
REMARK  411  A    between atoms: _1355  and  _1356
REMARK  412  A    between atoms: _1355  and  _1358
REMARK  413  A    between atoms: _1364  and  _1365
REMARK  414  A    between atoms: _1365  and  _1366
REMARK  415  A    between atoms: _1365  and  _1368
REMARK  416  A    between atoms: _1368  and  _1369
REMARK  417  A    between atoms: _1376  and  _1377
REMARK  418  A    between atoms: _1377  and  _1378
REMARK  419  A    between atoms: _1377  and  _1380
REMARK  420  A    between atoms: _1380  and  _1381
REMARK  421  A    between atoms: _1381  and  _1382
REMARK  422  A    between atoms: _1381  and  _1383
REMARK  423  A    between atoms: _1395  and  _1396
REMARK  424  A    between atoms: _1396  and  _1399
REMARK  425  A    between atoms: _1399  and  _1400
REMARK  426  A    between atoms: _1399  and  _1401
REMARK  427  A    between atoms: _1400  and  _1402
REMARK  428  A    between atoms: _1422  and  _1425
REMARK  429  A    between atoms: _1424  and  _1428
REMARK  430  A    between atoms: _1425  and  _1427
REMARK  431  A    between atoms: _1443  and  _1444
REMARK  432  A    between atoms: _1443  and  _1446
REMARK  433  A    between atoms: _1446  and  _1447
REMARK  434  A    between atoms: _1457  and  _1458
REMARK  435  A    between atoms: _1458  and  _1459
REMARK  436  A    between atoms: _1458  and  _1461
REMARK  437  A    between atoms: _1461  and  _1462
REMARK  438  A    between atoms: _1462  and  _1463
REMARK  439  A    between atoms: _1462  and  _1464
REMARK  440  A    between atoms: _1476  and  _1477
REMARK  441  A    between atoms: _1477  and  _1478
REMARK  442  A    between atoms: _1483  and  _1484
REMARK  443  A    between atoms: _1484  and  _1485
REMARK  444  A    between atoms: _1484  and  _1487
REMARK  445  A    between atoms: _1487  and  _1488
REMARK  446  A    between atoms: _1487  and  _1489
REMARK  447  A    between atoms: _1497  and  _1498
REMARK  448  A    between atoms: _1498  and  _1499
REMARK  449  A    between atoms: _1498  and  _1501
REMARK  450  A    between atoms: _1501  and  _1502
REMARK  451  A    between atoms: _1501  and  _1503
REMARK  452  A    between atoms: _1502  and  _1504
REMARK  453  A    between atoms: _1516  and  _1517
REMARK  454  A    between atoms: _1517  and  _1518
REMARK  455  A    between atoms: _1517  and  _1520
REMARK  456  A    between atoms: _1526  and  _1527
REMARK  457  A    between atoms: _1527  and  _1528
REMARK  458  A    between atoms: _1527  and  _1530
REMARK  459  A    between atoms: _1530  and  _1531
REMARK  460  A    between atoms: _1531  and  _1532
REMARK  461  A    between atoms: _1532  and  _1533
REMARK  462  A    between atoms: _1533  and  _1534
REMARK  463  A    between atoms: _1548  and  _1549
REMARK  464  A    between atoms: _1549  and  _1550
REMARK  465  A    between atoms: _1549  and  _1552
REMARK  466  A    between atoms: _1552  and  _1553
REMARK  467  A    between atoms: _1559  and  _1560
REMARK  468  A    between atoms: _1560  and  _1561
REMARK  469  A    between atoms: _1566  and  _1567
REMARK  470  A    between atoms: _1567  and  _1568
REMARK  471  A    between atoms: _1567  and  _1570
REMARK  472  A    between atoms: _1570  and  _1571
REMARK  473  A    between atoms: _1570  and  _1572
REMARK  474  A    between atoms: _1580  and  _1581
REMARK  475  A    between atoms: _1581  and  _1582
REMARK  476  A    between atoms: _1581  and  _1584
REMARK  477  A    between atoms: _1584  and  _1585
REMARK  478  A    between atoms: _1585  and  _1586
REMARK  479  A    between atoms: _1586  and  _1587
REMARK  480  A    between atoms: _1587  and  _1588
REMARK  481  A    between atoms: _1602  and  _1603
REMARK  482  A    between atoms: _1603  and  _1604
REMARK  483  A    between atoms: _1603  and  _1606
REMARK  484  A    between atoms: _1612  and  _1613
REMARK  485  A    between atoms: _1613  and  _1614
REMARK  486  A    between atoms: _1613  and  _1616
REMARK  487  A    between atoms: _1616  and  _1617
REMARK  488  A    between atoms: _1632  and  _1633
REMARK  489  A    between atoms: _1633  and  _1634
REMARK  490  A    between atoms: _1633  and  _1636
REMARK  491  A    between atoms: _1636  and  _1637
REMARK  492  A    between atoms: _1637  and  _1638
REMARK  493  A    between atoms: _1638  and  _1639
REMARK  494  A    between atoms: _1649  and  _1650
REMARK  495  A    between atoms: _1650  and  _1651
REMARK  496  A    between atoms: _1650  and  _1653
REMARK  497  A    between atoms: _1653  and  _1654
REMARK  498  A    between atoms: _1654  and  _1655
REMARK  499  A    between atoms: _1664  and  _1665
REMARK  500  A    between atoms: _1665  and  _1666
REMARK  501  A    between atoms: _1665  and  _1668
REMARK  502  A    between atoms: _1674  and  _1675
REMARK  503  A    between atoms: _1675  and  _1676
REMARK  504  A    between atoms: _1675  and  _1678
REMARK  505  A    between atoms: _1678  and  _1679
REMARK  506  A    between atoms: _1679  and  _1680
REMARK  507  A    between atoms: _1679  and  _1681
REMARK  508  A    between atoms: _1693  and  _1694
REMARK  509  A    between atoms: _1694  and  _1695
REMARK  510  A    between atoms: _1694  and  _1697
REMARK  511  A    between atoms: _1697  and  _1698
REMARK  512  A    between atoms: _1698  and  _1699
REMARK  513  A    between atoms: _1710  and  _1711
REMARK  514  A    between atoms: _1711  and  _1712
REMARK  515  A    between atoms: _1711  and  _1714
REMARK  516  A    between atoms: _1720  and  _1721
REMARK  517  A    between atoms: _1721  and  _1722
REMARK  518  A    between atoms: _1727  and  _1728
REMARK  519  A    between atoms: _1728  and  _1729
REMARK  520  A    between atoms: _1728  and  _1731
REMARK  521  A    between atoms: _1737  and  _1738
REMARK  522  A    between atoms: _1738  and  _1739
REMARK  523  A    between atoms: _1738  and  _1741
REMARK  524  A    between atoms: _1741  and  _1742
REMARK  525  A    between atoms: _1749  and  _1750
REMARK  526  A    between atoms: _1750  and  _1751
REMARK  527  A    between atoms: _1750  and  _1753
REMARK  528  A    between atoms: _1753  and  _1754
REMARK  529  A    between atoms: _1753  and  _1755
REMARK  530  A    between atoms: _1754  and  _1756
REMARK  531  A    between atoms: _1768  and  _1769
REMARK  532  A    between atoms: _1769  and  _1772
REMARK  533  A    between atoms: _1772  and  _1773
REMARK  534  A    between atoms: _1791  and  _1793
REMARK  535  A    between atoms: _1792  and  _1794
REMARK  536  A    between atoms: _1814  and  _1815
REMARK  537  A    between atoms: _1814  and  _1817
REMARK  538  A    between atoms: _1817  and  _1818
REMARK  539  A    between atoms: _1817  and  _1819
REMARK  540  A    between atoms: _1818  and  _1820
REMARK  541  A    between atoms: _1833  and  _1834
REMARK  542  A    between atoms: _1834  and  _1835
REMARK  543  A    between atoms: _1840  and  _1841
REMARK  544  A    between atoms: _1841  and  _1842
REMARK  545  A    between atoms: _1841  and  _1844
REMARK  546  A    between atoms: _1844  and  _1845
REMARK  547  A    between atoms: _1845  and  _1846
REMARK  548  A    between atoms: _1857  and  _1858
REMARK  549  A    between atoms: _1858  and  _1859
REMARK  550  A    between atoms: _1858  and  _1861
REMARK  551  A    between atoms: _1861  and  _1862
REMARK  552  A    between atoms: _1877  and  _1878
REMARK  553  A    between atoms: _1878  and  _1879
REMARK  554  A    between atoms: _1884  and  _1885
REMARK  555  A    between atoms: _1885  and  _1886
REMARK  556  A    between atoms: _1885  and  _1888
REMARK  557  A    between atoms: _1888  and  _1889
REMARK  558  A    between atoms: _1888  and  _1890
REMARK  559  A    between atoms: _1900  and  _1901
REMARK  560  A    between atoms: _1901  and  _1902
REMARK  561  A    between atoms: _1907  and  _1908
REMARK  562  A    between atoms: _1908  and  _1909
REMARK  563  A    between atoms: _1908  and  _1911
REMARK  564  A    between atoms: _1911  and  _1912
REMARK  565  A    between atoms: _1927  and  _1928
REMARK  566  A    between atoms: _1928  and  _1929
REMARK  567  A    between atoms: _1928  and  _1931
REMARK  568  A    between atoms: _1931  and  _1932
REMARK  569  A    between atoms: _1937  and  _1938
REMARK  570  A    between atoms: _1948  and  _1949
REMARK  571  A    between atoms: _1949  and  _1950
REMARK  572  A    between atoms: _1949  and  _1952
REMARK  573  A    between atoms: _1952  and  _1953
REMARK  574  A    between atoms: _1959  and  _1960
REMARK  575  A    between atoms: _1960  and  _1961
REMARK  576  A    between atoms: _1960  and  _1963
REMARK  577  A    between atoms: _1969  and  _1970
REMARK  578  A    between atoms: _1970  and  _1971
REMARK  579  A    between atoms: _1970  and  _1973
REMARK  580  A    between atoms: _1973  and  _1974
REMARK  581  A    between atoms: _1979  and  _1980
REMARK  582  A    between atoms: _1990  and  _1991
REMARK  583  A    between atoms: _1991  and  _1992
REMARK  584  A    between atoms: _1991  and  _1994
REMARK  585  A    between atoms: _1994  and  _1995
REMARK  586  A    between atoms: _1995  and  _1996
REMARK  587  A    between atoms: _1995  and  _1997
REMARK  588  A    between atoms: _2009  and  _2010
REMARK  589  A    between atoms: _2010  and  _2011
REMARK  590  A    between atoms: _2010  and  _2013
REMARK  591  A    between atoms: _2013  and  _2014
REMARK  592  A    between atoms: _2013  and  _2015
REMARK  593  A    between atoms: _2025  and  _2026
REMARK  594  A    between atoms: _2026  and  _2027
REMARK  595  A    between atoms: _2026  and  _2029
REMARK  596  A    between atoms: _2035  and  _2036
REMARK  597  A    between atoms: _2036  and  _2037
REMARK  598  A    between atoms: _2036  and  _2039
REMARK  599  A    between atoms: _2039  and  _2040
REMARK  600  A    between atoms: _2040  and  _2041
REMARK  601  A    between atoms: _2050  and  _2051
REMARK  602  A    between atoms: _2051  and  _2052
REMARK  603  A    between atoms: _2051  and  _2054
REMARK  604  A    between atoms: _2054  and  _2055
REMARK  605  A    between atoms: _2055  and  _2056
REMARK  606  A    between atoms: _2056  and  _2057
REMARK  607  A    between atoms: _2057  and  _2058
REMARK  608  A    between atoms: _2072  and  _2073
REMARK  609  A    between atoms: _2073  and  _2074
REMARK  610  A    between atoms: _2073  and  _2076
REMARK  611  A    between atoms: _2076  and  _2077
REMARK  612  A    between atoms: _2076  and  _2078
REMARK  613  A    between atoms: _2088  and  _2089
REMARK  614  A    between atoms: _2089  and  _2090
REMARK  615  A    between atoms: _2089  and  _2092
REMARK  616  A    between atoms: _2092  and  _2093
REMARK  617  A    between atoms: _2092  and  _2094
REMARK  618  A    between atoms: _2102  and  _2103
REMARK  619  A    between atoms: _2103  and  _2104
REMARK  620  A    between atoms: _2103  and  _2106
REMARK  621  A    between atoms: _2106  and  _2107
REMARK  622  A    between atoms: _2106  and  _2108
REMARK  623  A    between atoms: _2118  and  _2119
REMARK  624  A    between atoms: _2119  and  _2120
REMARK  625  A    between atoms: _2119  and  _2122
REMARK  626  A    between atoms: _2122  and  _2123
REMARK  627  A    between atoms: _2122  and  _2124
REMARK  628  A    between atoms: _2123  and  _2125
REMARK  629  A    between atoms: _2137  and  _2138
REMARK  630  A    between atoms: _2138  and  _2139
REMARK  631  A    between atoms: _2138  and  _2141
REMARK  632  A    between atoms: _2141  and  _2142
REMARK  633  A    between atoms: _2141  and  _2143
REMARK  634  A    between atoms: _2151  and  _2152
REMARK  635  A    between atoms: _2152  and  _2153
REMARK  636  A    between atoms: _2152  and  _2155
REMARK  637  A    between atoms: _2155  and  _2156
REMARK  638  A    between atoms: _2156  and  _2157
REMARK  639  A    between atoms: _2157  and  _2158
REMARK  640  A    between atoms: _2158  and  _2159
REMARK  641  A    between atoms: _2173  and  _2174
REMARK  642  A    between atoms: _2174  and  _2175
REMARK  643  A    between atoms: _2174  and  _2177
REMARK  644  A    between atoms: _2177  and  _2178
REMARK  645  A    between atoms: _2190  and  _2191
REMARK  646  A    between atoms: _2191  and  _2192
REMARK  647  A    between atoms: _2191  and  _2194
REMARK  648  A    between atoms: _2194  and  _2195
REMARK  649  A    between atoms: _2204  and  _2205
REMARK  650  A    between atoms: _2205  and  _2206
REMARK  651  A    between atoms: _2205  and  _2208
REMARK  652  A    between atoms: _2208  and  _2209
REMARK  653  A    between atoms: _2216  and  _2217
REMARK  654  A    between atoms: _2217  and  _2218
REMARK  655  A    between atoms: _2217  and  _2220
REMARK  656  A    between atoms: _2220  and  _2221
REMARK  657  A    between atoms: _2228  and  _2229
REMARK  658  A    between atoms: _2229  and  _2230
REMARK  659  A    between atoms: _2229  and  _2232
REMARK  660  A    between atoms: _2232  and  _2233
REMARK  661  A    between atoms: _2233  and  _2234
REMARK  662  A    between atoms: _2243  and  _2244
REMARK  663  A    between atoms: _2244  and  _2245
REMARK  664  A    between atoms: _2244  and  _2247
REMARK  665  A    between atoms: _2247  and  _2248
REMARK  666  A    between atoms: _2248  and  _2249
REMARK  667  A    between atoms: _2260  and  _2261
REMARK  668  A    between atoms: _2261  and  _2262
REMARK  669  A    between atoms: _2261  and  _2264
REMARK  670  A    between atoms: _2264  and  _2265
REMARK  671  A    between atoms: _2270  and  _2271
REMARK  672  A    between atoms: _2281  and  _2282
REMARK  673  A    between atoms: _2282  and  _2283
REMARK  674  A    between atoms: _2282  and  _2285
REMARK  675  A    between atoms: _2291  and  _2292
REMARK  676  A    between atoms: _2292  and  _2293
REMARK  677  A    between atoms: _2292  and  _2295
REMARK  678  A    between atoms: _2295  and  _2296
REMARK  679  A    between atoms: _2315  and  _2316
REMARK  680  A    between atoms: _2316  and  _2317
REMARK  681  A    between atoms: _2316  and  _2319
REMARK  682  A    between atoms: _2319  and  _2320
REMARK  683  A    between atoms: _2320  and  _2321
REMARK  684  A    between atoms: _2330  and  _2331
REMARK  685  A    between atoms: _2331  and  _2332
REMARK  686  A    between atoms: _2331  and  _2334
REMARK  687  A    between atoms: _2334  and  _2335
REMARK  688  A    between atoms: _2341  and  _2342
REMARK  689  A    between atoms: _2342  and  _2343
REMARK  690  A    between atoms: _2342  and  _2345
REMARK  691  A    between atoms: _2345  and  _2346
REMARK  692  A    between atoms: _2352  and  _2353
REMARK  693  A    between atoms: _2353  and  _2354
REMARK  694  A    between atoms: _2353  and  _2356
REMARK  695  A    between atoms: _2362  and  _2363
REMARK  696  A    between atoms: _2363  and  _2364
REMARK  697  A    between atoms: _2369  and  _2370
REMARK  698  A    between atoms: _2370  and  _2371
REMARK  699  A    between atoms: _2376  and  _2377
REMARK  700  A    between atoms: _2377  and  _2378
REMARK  701  A    between atoms: _2377  and  _2380
REMARK  702  A    between atoms: _2380  and  _2381
REMARK  703  A    between atoms: _2387  and  _2388
REMARK  704  A    between atoms: _2388  and  _2389
REMARK  705  A    between atoms: _2388  and  _2391
REMARK  706  A    between atoms: _2391  and  _2392
REMARK  707  A    between atoms: _2407  and  _2408
REMARK  708  A    between atoms: _2408  and  _2409
REMARK  709  A    between atoms: _2408  and  _2411
REMARK  710  A    between atoms: _2411  and  _2412
REMARK  711  A    between atoms: _2411  and  _2413
REMARK  712  A    between atoms: _2421  and  _2422
REMARK  713  A    between atoms: _2422  and  _2423
REMARK  714  A    between atoms: _2422  and  _2425
REMARK  715  A    between atoms: _2425  and  _2426
REMARK  716  A    between atoms: _2425  and  _2427
REMARK  717  A    between atoms: _2437  and  _2438
REMARK  718  A    between atoms: _2438  and  _2439
REMARK  719  A    between atoms: _2438  and  _2441
REMARK  720  A    between atoms: _2441  and  _2442
REMARK  721  A    between atoms: _2442  and  _2443
REMARK  722  A    between atoms: _2443  and  _2444
REMARK  723  A    between atoms: _2461  and  _2462
REMARK  724  A    between atoms: _2462  and  _2463
REMARK  725  A    between atoms: _2462  and  _2465
REMARK  726  A    between atoms: _2465  and  _2466
REMARK  727  A    between atoms: _2465  and  _2467
REMARK  728  A    between atoms: _2475  and  _2476
REMARK  729  A    between atoms: _2476  and  _2477
REMARK  730  A    between atoms: _2476  and  _2479
REMARK  731  A    between atoms: _2479  and  _2480
REMARK  732  A    between atoms: _2487  and  _2488
REMARK  733  A    between atoms: _2488  and  _2489
REMARK  734  A    between atoms: _2488  and  _2491
REMARK  735  A    between atoms: _2491  and  _2492
REMARK  736  A    between atoms: _2491  and  _2493
REMARK  737  A    between atoms: _2501  and  _2502
REMARK  738  A    between atoms: _2502  and  _2503
REMARK  739  A    between atoms: _2508  and  _2509
REMARK  740  A    between atoms: _2509  and  _2510
REMARK  741  A    between atoms: _2509  and  _2512
REMARK  742  A    between atoms: _2512  and  _2513
REMARK  743  A    between atoms: _2513  and  _2514
REMARK  744  A    between atoms: _2524  and  _2525
REMARK  745  A    between atoms: _2537  and  _2538
REMARK  746  A    between atoms: _2538  and  _2539
REMARK  747  A    between atoms: _2538  and  _2541
REMARK  748  A    between atoms: _2541  and  _2542
REMARK  749  A    between atoms: _2542  and  _2543
REMARK  750  A    between atoms: _2543  and  _2544
REMARK  751  A    between atoms: _2554  and  _2555
REMARK  752  A    between atoms: _2555  and  _2556
REMARK  753  A    between atoms: _2561  and  _2562
REMARK  754  A    between atoms: _2562  and  _2563
REMARK  755  A    between atoms: _2562  and  _2565
REMARK  756  A    between atoms: _2565  and  _2566
REMARK  757  A    between atoms: _2566  and  _2567
REMARK  758  A    between atoms: _2567  and  _2568
REMARK  759  A    between atoms: _2585  and  _2586
REMARK  760  A    between atoms: _2586  and  _2587
REMARK  761  A    between atoms: _2592  and  _2593
REMARK  762  A    between atoms: _2593  and  _2594
REMARK  763  A    between atoms: _2593  and  _2596
REMARK  764  A    between atoms: _2596  and  _2597
REMARK  765  A    between atoms: _2596  and  _2598
REMARK  766  A    between atoms: _2606  and  _2607
REMARK  767  A    between atoms: _2607  and  _2608
REMARK  768  A    between atoms: _2607  and  _2610
REMARK  769  A    between atoms: _2610  and  _2611
REMARK  770  A    between atoms: _2611  and  _2612
REMARK  771  A    between atoms: _2612  and  _2613
REMARK  772  A    between atoms: _2613  and  _2614
REMARK  773  A    between atoms: _2628  and  _2629
REMARK  774  A    between atoms: _2629  and  _2630
REMARK  775  A    between atoms: _2629  and  _2632
REMARK  776  A    between atoms: _2632  and  _2633
REMARK  777  A    between atoms: _2632  and  _2634
REMARK  778  A    between atoms: _2644  and  _2645
REMARK  779  A    between atoms: _2645  and  _2646
REMARK  780  A    between atoms: _2645  and  _2648
REMARK  781  A    between atoms: _2648  and  _2649
REMARK  782  A    between atoms: _2648  and  _2650
REMARK  783  A    between atoms: _2649  and  _2651
REMARK  784  A    between atoms: _2663  and  _2664
REMARK  785  A    between atoms: _2664  and  _2665
REMARK  786  A    between atoms: _2664  and  _2667
REMARK  787  A    between atoms: _2667  and  _2668
REMARK  788  A    between atoms: _2668  and  _2669
REMARK  789  A    between atoms: _2668  and  _2670
REMARK  790  A    between atoms: _2682  and  _2683
REMARK  791  A    between atoms: _2683  and  _2684
REMARK  792  A    between atoms: _2683  and  _2686
REMARK  793  A    between atoms: _2686  and  _2687
REMARK  794  A    between atoms: _2699  and  _2700
REMARK  795  A    between atoms: _2700  and  _2701
REMARK  796  A    between atoms: _2700  and  _2703
REMARK  797  A    between atoms: _2703  and  _2704
REMARK  798  A    between atoms: _2704  and  _2705
REMARK  799  A    between atoms: _2704  and  _2706
REMARK  800  A    between atoms: _2718  and  _2719
REMARK  801  A    between atoms: _2719  and  _2720
REMARK  802  A    between atoms: _2719  and  _2722
REMARK  803  A    between atoms: _2722  and  _2723
REMARK  804  A    between atoms: _2723  and  _2724
REMARK  805  A    between atoms: _2724  and  _2725
REMARK  806  A    between atoms: _2725  and  _2726
REMARK  807  A    between atoms: _2740  and  _2741
REMARK  808  A    between atoms: _2741  and  _2742
REMARK  809  A    between atoms: _2741  and  _2744
REMARK  810  A    between atoms: _2744  and  _2745
REMARK  811  A    between atoms: _2745  and  _2746
REMARK  812  A    between atoms: _2755  and  _2756
REMARK  813  A    between atoms: _2756  and  _2757
REMARK  814  A    between atoms: _2756  and  _2759
REMARK  815  A    between atoms: _2759  and  _2760
REMARK  816  A    between atoms: _2767  and  _2768
REMARK  817  A    between atoms: _2768  and  _2769
REMARK  818  A    between atoms: _2768  and  _2771
REMARK  819  A    between atoms: _2771  and  _2772
REMARK  820  A    between atoms: _2772  and  _2773
REMARK  821  A    between atoms: _2784  and  _2785
REMARK  822  A    between atoms: _2785  and  _2786
REMARK  823  A    between atoms: _2785  and  _2788
REMARK  824  A    between atoms: _2788  and  _2789
REMARK  825  A    between atoms: _2788  and  _2790
REMARK  826  A    between atoms: _2798  and  _2799
REMARK  827  A    between atoms: _2799  and  _2800
REMARK  828  A    between atoms: _2799  and  _2802
REMARK  829  A    between atoms: _2802  and  _2803
REMARK  830  A    between atoms: _2803  and  _2804
REMARK  831  A    between atoms: _2813  and  _2814
REMARK  832  A    between atoms: _2814  and  _2815
REMARK  833  A    between atoms: _2814  and  _2817
REMARK  834  A    between atoms: _2817  and  _2818
REMARK  835  A    between atoms: _2823  and  _2824
REMARK  836  A    between atoms: _2834  and  _2835
REMARK  837  A    between atoms: _2835  and  _2838
REMARK  838  A    between atoms: _2838  and  _2839
REMARK  839  A    between atoms: _2839  and  _2840
REMARK  840  A    between atoms: _2839  and  _2841
REMARK  841  A    between atoms: _2884  and  _2885
REMARK  842  A    between atoms: _2884  and  _2887
REMARK  843  A    between atoms: _2887  and  _2888
REMARK  844  A    between atoms: _2888  and  _2889
REMARK  845  A    between atoms: _2899  and  _2900
REMARK  846  A    between atoms: _2900  and  _2901
REMARK  847  A    between atoms: _2900  and  _2903
REMARK  848  A    between atoms: _2903  and  _2904
REMARK  849  A    between atoms: _2904  and  _2905
REMARK  850  A    between atoms: _2905  and  _2906
REMARK  851  A    between atoms: _2923  and  _2924
REMARK  852  A    between atoms: _2924  and  _2925
REMARK  853  A    between atoms: _2924  and  _2927
REMARK  854  A    between atoms: _2927  and  _2928
REMARK  855  A    between atoms: _2928  and  _2929
REMARK  856  A    between atoms: _2929  and  _2930
REMARK  857  A    between atoms: _2947  and  _2948
REMARK  858  A    between atoms: _2948  and  _2949
REMARK  859  A    between atoms: _2948  and  _2951
REMARK  860  A    between atoms: _2951  and  _2952
REMARK  861  A    between atoms: _2951  and  _2953
REMARK  862  A    between atoms: _2952  and  _2954
REMARK  863  A    between atoms: _2966  and  _2967
REMARK  864  A    between atoms: _2967  and  _2968
REMARK  865  A    between atoms: _2967  and  _2970
REMARK  866  A    between atoms: _2970  and  _2971
REMARK  867  A    between atoms: _2971  and  _2972
REMARK  868  A    between atoms: _2972  and  _2973
REMARK  869  A    between atoms: _2973  and  _2974
REMARK  870  A    between atoms: _2988  and  _2989
REMARK  871  A    between atoms: _2989  and  _2990
REMARK  872  A    between atoms: _2989  and  _2992
REMARK  873  A    between atoms: _2992  and  _2993
REMARK  874  A    between atoms: _2993  and  _2994
REMARK  875  A    between atoms: _3003  and  _3004
REMARK  876  A    between atoms: _3004  and  _3005
REMARK  877  A    between atoms: _3004  and  _3007
REMARK  878  A    between atoms: _3007  and  _3008
REMARK  879  A    between atoms: _3007  and  _3009
REMARK  880  A    between atoms: _3008  and  _3010
REMARK  881  A    between atoms: _3022  and  _3023
REMARK  882  A    between atoms: _3023  and  _3024
REMARK  883  A    between atoms: _3023  and  _3026
REMARK  884  A    between atoms: _3026  and  _3027
REMARK  885  A    between atoms: _3026  and  _3028
REMARK  886  A    between atoms: _3038  and  _3039
REMARK  887  A    between atoms: _3039  and  _3040
REMARK  888  A    between atoms: _3039  and  _3042
REMARK  889  A    between atoms: _3042  and  _3043
REMARK  890  A    between atoms: _3043  and  _3044
REMARK  891  A    between atoms: _3044  and  _3045
REMARK  892  A    between atoms: _3045  and  _3046
REMARK  893  A    between atoms: _3060  and  _3061
REMARK  894  A    between atoms: _3061  and  _3062
REMARK  895  A    between atoms: _3061  and  _3064
REMARK  896  A    between atoms: _3064  and  _3065
REMARK  897  A    between atoms: _3065  and  _3066
REMARK  898  A    between atoms: _3066  and  _3067
REMARK  899  A    between atoms: _3067  and  _3068
REMARK  900  A    between atoms: _3082  and  _3083
REMARK  901  A    between atoms: _3083  and  _3084
REMARK  902  A    between atoms: _3083  and  _3086
REMARK  903  A    between atoms: _3086  and  _3087
REMARK  904  A    between atoms: _3099  and  _3100
REMARK  905  A    between atoms: _3100  and  _3101
REMARK  906  A    between atoms: _3100  and  _3103
REMARK  907  A    between atoms: _3103  and  _3104
REMARK  908  A    between atoms: _3110  and  _3111
REMARK  909  A    between atoms: _3111  and  _3112
REMARK  910  A    between atoms: _3111  and  _3114
REMARK  911  A    between atoms: _3114  and  _3115
REMARK  912  A    between atoms: _3115  and  _3116
REMARK  913  A    between atoms: _3127  and  _3128
REMARK  914  A    between atoms: _3128  and  _3129
REMARK  915  A    between atoms: _3128  and  _3131
REMARK  916  A    between atoms: _3131  and  _3132
REMARK  917  A    between atoms: _3147  and  _3148
REMARK  918  A    between atoms: _3148  and  _3149
REMARK  919  A    between atoms: _3148  and  _3151
REMARK  920  A    between atoms: _3151  and  _3152
REMARK  921  A    between atoms: _3151  and  _3153
REMARK  922  A    between atoms: _3152  and  _3154
REMARK  923  A    between atoms: _3166  and  _3167
REMARK  924  A    between atoms: _3167  and  _3168
REMARK  925  A    between atoms: _3173  and  _3174
REMARK  926  A    between atoms: _3174  and  _3175
REMARK  927  A    between atoms: _3174  and  _3177
REMARK  928  A    between atoms: _3177  and  _3178
REMARK  929  A    between atoms: _3183  and  _3184
REMARK  930  A    between atoms: _3195  and  _3196
REMARK  931  A    between atoms: _3208  and  _3209
REMARK  932  A    between atoms: _3209  and  _3210
REMARK  933  A    between atoms: _3209  and  _3212
REMARK  934  A    between atoms: _3212  and  _3213
REMARK  935  A    between atoms: _3212  and  _3214
REMARK  936  A    between atoms: _3213  and  _3215
REMARK  937  A    between atoms: _3227  and  _3228
REMARK  938  A    between atoms: _3228  and  _3229
REMARK  939  A    between atoms: _3228  and  _3231
REMARK  940  A    between atoms: _3231  and  _3232
REMARK  941  A    between atoms: _3231  and  _3233
REMARK  942  A    between atoms: _3241  and  _3242
REMARK  943  A    between atoms: _3242  and  _3243
REMARK  944  A    between atoms: _3242  and  _3245
REMARK  945  A    between atoms: _3245  and  _3246
REMARK  946  A    between atoms: _3246  and  _3247
REMARK  947  A    between atoms: _3246  and  _3248
REMARK  948  A    between atoms: _3260  and  _3261
REMARK  949  A    between atoms: _3261  and  _3262
REMARK  950  A    between atoms: _3261  and  _3264
REMARK  951  A    between atoms: _3264  and  _3265
REMARK  952  A    between atoms: _3280  and  _3281
REMARK  953  A    between atoms: _3281  and  _3282
REMARK  954  A    between atoms: _3281  and  _3284
REMARK  955  A    between atoms: _3284  and  _3285
REMARK  956  A    between atoms: _3284  and  _3286
REMARK  957  A    between atoms: _3296  and  _3297
REMARK  958  A    between atoms: _3297  and  _3298
REMARK  959  A    between atoms: _3297  and  _3300
REMARK  960  A    between atoms: _3300  and  _3301
REMARK  961  A    between atoms: _3301  and  _3302
REMARK                            x       y       z     vdW  Elec       q    Type
REMARK                         _______ _______ _______ _____ _____    ______ ____
ROOT
ATOM      1  N   UNL     1      11.880  32.437  17.616  0.00  0.00    +0.000 NA
ENDROOT
TORSDOF 0
REMARK  Name = /Users/mlugowska/PhD/ML_residence_time_prediction/protein_files/5J20_protein.pdb
REMARK  961 active torsions:
REMARK  status: ('A' for Active; 'I' for Inactive)
REMARK    1  A    between atoms: _2  and  _3
REMARK    2  A    between atoms: _2  and  _5
REMARK    3  A    between atoms: _10  and  _11
REMARK    4  A    between atoms: _11  and  _12
REMARK    5  A    between atoms: _11  and  _14
REMARK    6  A    between atoms: _14  and  _15
REMARK    7  A    between atoms: _14  and  _16
REMARK    8  A    between atoms: _26  and  _27
REMARK    9  A    between atoms: _27  and  _28
REMARK   10  A    between atoms: _27  and  _30
REMARK   11  A    between atoms: _30  and  _31
REMARK   12  A    between atoms: _31  and  _32
REMARK   13  A    between atoms: _41  and  _42
REMARK   14  A    between atoms: _42  and  _43
REMARK   15  A    between atoms: _42  and  _45
REMARK   16  A    between atoms: _45  and  _46
REMARK   17  A    between atoms: _45  and  _47
REMARK   18  A    between atoms: _55  and  _56
REMARK   19  A    between atoms: _56  and  _57
REMARK   20  A    between atoms: _56  and  _59
REMARK   21  A    between atoms: _59  and  _60
REMARK   22  A    between atoms: _75  and  _76
REMARK   23  A    between atoms: _76  and  _77
REMARK   24  A    between atoms: _76  and  _79
REMARK   25  A    between atoms: _85  and  _86
REMARK   26  A    between atoms: _86  and  _87
REMARK   27  A    between atoms: _86  and  _89
REMARK   28  A    between atoms: _89  and  _90
REMARK   29  A    between atoms: _105  and  _106
REMARK   30  A    between atoms: _106  and  _107
REMARK   31  A    between atoms: _106  and  _109
REMARK   32  A    between atoms: _109  and  _110
REMARK   33  A    between atoms: _110  and  _111
REMARK   34  A    between atoms: _122  and  _123
REMARK   35  A    between atoms: _123  and  _124
REMARK   36  A    between atoms: _123  and  _126
REMARK   37  A    between atoms: _132  and  _133
REMARK   38  A    between atoms: _133  and  _134
REMARK   39  A    between atoms: _133  and  _136
REMARK   40  A    between atoms: _136  and  _137
REMARK   41  A    between atoms: _137  and  _138
REMARK   42  A    between atoms: _147  and  _148
REMARK   43  A    between atoms: _148  and  _149
REMARK   44  A    between atoms: _148  and  _151
REMARK   45  A    between atoms: _151  and  _152
REMARK   46  A    between atoms: _151  and  _153
REMARK   47  A    between atoms: _152  and  _154
REMARK   48  A    between atoms: _166  and  _167
REMARK   49  A    between atoms: _167  and  _168
REMARK   50  A    between atoms: _167  and  _170
REMARK   51  A    between atoms: _176  and  _177
REMARK   52  A    between atoms: _177  and  _178
REMARK   53  A    between atoms: _177  and  _180
REMARK   54  A    between atoms: _180  and  _181
REMARK   55  A    between atoms: _181  and  _182
REMARK   56  A    between atoms: _193  and  _194
REMARK   57  A    between atoms: _194  and  _195
REMARK   58  A    between atoms: _194  and  _197
REMARK   59  A    between atoms: _197  and  _198
REMARK   60  A    between atoms: _198  and  _199
REMARK   61  A    between atoms: _198  and  _200
REMARK   62  A    between atoms: _212  and  _213
REMARK   63  A    between atoms: _213  and  _214
REMARK   64  A    between atoms: _213  and  _216
REMARK   65  A    between atoms: _216  and  _217
REMARK   66  A    between atoms: _217  and  _218
REMARK   67  A    between atoms: _218  and  _219
REMARK   68  A    between atoms: _229  and  _230
REMARK   69  A    between atoms: _230  and  _231
REMARK   70  A    between atoms: _230  and  _233
REMARK   71  A    between atoms: _233  and  _234
REMARK   72  A    between atoms: _240  and  _241
REMARK   73  A    between atoms: _241  and  _242
REMARK   74  A    between atoms: _241  and  _244
REMARK   75  A    between atoms: _244  and  _245
REMARK   76  A    between atoms: _245  and  _246
REMARK   77  A    between atoms: _245  and  _247
REMARK   78  A    between atoms: _259  and  _260
REMARK   79  A    between atoms: _260  and  _261
REMARK   80  A    between atoms: _260  and  _263
REMARK   81  A    between atoms: _263  and  _264
REMARK   82  A    between atoms: _263  and  _265
REMARK   83  A    between atoms: _264  and  _266
REMARK   84  A    between atoms: _278  and  _279
REMARK   85  A    between atoms: _279  and  _280
REMARK   86  A    between atoms: _279  and  _282
REMARK   87  A    between atoms: _282  and  _283
REMARK   88  A    between atoms: _282  and  _284
REMARK   89  A    between atoms: _283  and  _285
REMARK   90  A    between atoms: _297  and  _298
REMARK   91  A    between atoms: _298  and  _299
REMARK   92  A    between atoms: _298  and  _301
REMARK   93  A    between atoms: _301  and  _302
REMARK   94  A    between atoms: _311  and  _312
REMARK   95  A    between atoms: _312  and  _313
REMARK   96  A    between atoms: _312  and  _315
REMARK   97  A    between atoms: _315  and  _316
REMARK   98  A    between atoms: _315  and  _317
REMARK   99  A    between atoms: _325  and  _326
REMARK  100  A    between atoms: _326  and  _327
REMARK  101  A    between atoms: _326  and  _329
REMARK  102  A    between atoms: _329  and  _330
REMARK  103  A    between atoms: _345  and  _346
REMARK  104  A    between atoms: _346  and  _347
REMARK  105  A    between atoms: _346  and  _349
REMARK  106  A    between atoms: _349  and  _350
REMARK  107  A    between atoms: _355  and  _356
REMARK  108  A    between atoms: _366  and  _367
REMARK  109  A    between atoms: _367  and  _368
REMARK  110  A    between atoms: _367  and  _370
REMARK  111  A    between atoms: _370  and  _371
REMARK  112  A    between atoms: _377  and  _378
REMARK  113  A    between atoms: _378  and  _379
REMARK  114  A    between atoms: _378  and  _381
REMARK  115  A    between atoms: _381  and  _382
REMARK  116  A    between atoms: _391  and  _392
REMARK  117  A    between atoms: _392  and  _393
REMARK  118  A    between atoms: _392  and  _395
REMARK  119  A    between atoms: _395  and  _396
REMARK  120  A    between atoms: _396  and  _397
REMARK  121  A    between atoms: _397  and  _398
REMARK  122  A    between atoms: _398  and  _399
REMARK  123  A    between atoms: _413  and  _414
REMARK  124  A    between atoms: _414  and  _415
REMARK  125  A    between atoms: _414  and  _417
REMARK  126  A    between atoms: _417  and  _418
REMARK  127  A    between atoms: _418  and  _419
REMARK  128  A    between atoms: _428  and  _429
REMARK  129  A    between atoms: _429  and  _430
REMARK  130  A    between atoms: _429  and  _432
REMARK  131  A    between atoms: _432  and  _433
REMARK  132  A    between atoms: _432  and  _434
REMARK  133  A    between atoms: _433  and  _435
REMARK  134  A    between atoms: _447  and  _448
REMARK  135  A    between atoms: _448  and  _449
REMARK  136  A    between atoms: _448  and  _451
REMARK  137  A    between atoms: _451  and  _452
REMARK  138  A    between atoms: _467  and  _468
REMARK  139  A    between atoms: _468  and  _469
REMARK  140  A    between atoms: _468  and  _471
REMARK  141  A    between atoms: _471  and  _472
REMARK  142  A    between atoms: _472  and  _473
REMARK  143  A    between atoms: _472  and  _474
REMARK  144  A    between atoms: _486  and  _487
REMARK  145  A    between atoms: _487  and  _488
REMARK  146  A    between atoms: _487  and  _490
REMARK  147  A    between atoms: _490  and  _491
REMARK  148  A    between atoms: _491  and  _492
REMARK  149  A    between atoms: _492  and  _493
REMARK  150  A    between atoms: _510  and  _511
REMARK  151  A    between atoms: _511  and  _512
REMARK  152  A    between atoms: _511  and  _514
REMARK  153  A    between atoms: _514  and  _515
REMARK  154  A    between atoms: _515  and  _516
REMARK  155  A    between atoms: _525  and  _526
REMARK  156  A    between atoms: _526  and  _527
REMARK  157  A    between atoms: _526  and  _529
REMARK  158  A    between atoms: _529  and  _530
REMARK  159  A    between atoms: _530  and  _531
REMARK  160  A    between atoms: _530  and  _532
REMARK  161  A    between atoms: _544  and  _545
REMARK  162  A    between atoms: _545  and  _546
REMARK  163  A    between atoms: _545  and  _548
REMARK  164  A    between atoms: _548  and  _549
REMARK  165  A    between atoms: _548  and  _550
REMARK  166  A    between atoms: _549  and  _551
REMARK  167  A    between atoms: _563  and  _564
REMARK  168  A    between atoms: _564  and  _565
REMARK  169  A    between atoms: _564  and  _567
REMARK  170  A    between atoms: _567  and  _568
REMARK  171  A    between atoms: _574  and  _575
REMARK  172  A    between atoms: _575  and  _576
REMARK  173  A    between atoms: _575  and  _578
REMARK  174  A    between atoms: _578  and  _579
REMARK  175  A    between atoms: _588  and  _589
REMARK  176  A    between atoms: _589  and  _590
REMARK  177  A    between atoms: _589  and  _592
REMARK  178  A    between atoms: _592  and  _593
REMARK  179  A    between atoms: _599  and  _600
REMARK  180  A    between atoms: _600  and  _601
REMARK  181  A    between atoms: _600  and  _603
REMARK  182  A    between atoms: _603  and  _604
REMARK  183  A    between atoms: _610  and  _611
REMARK  184  A    between atoms: _611  and  _612
REMARK  185  A    between atoms: _611  and  _614
REMARK  186  A    between atoms: _614  and  _615
REMARK  187  A    between atoms: _622  and  _623
REMARK  188  A    between atoms: _623  and  _624
REMARK  189  A    between atoms: _623  and  _626
REMARK  190  A    between atoms: _632  and  _633
REMARK  191  A    between atoms: _633  and  _634
REMARK  192  A    between atoms: _633  and  _636
REMARK  193  A    between atoms: _636  and  _637
REMARK  194  A    between atoms: _637  and  _638
REMARK  195  A    between atoms: _637  and  _639
REMARK  196  A    between atoms: _651  and  _652
REMARK  197  A    between atoms: _652  and  _653
REMARK  198  A    between atoms: _652  and  _655
REMARK  199  A    between atoms: _655  and  _656
REMARK  200  A    between atoms: _663  and  _664
REMARK  201  A    between atoms: _664  and  _665
REMARK  202  A    between atoms: _664  and  _667
REMARK  203  A    between atoms: _667  and  _668
REMARK  204  A    between atoms: _668  and  _669
REMARK  205  A    between atoms: _669  and  _670
REMARK  206  A    between atoms: _670  and  _671
REMARK  207  A    between atoms: _685  and  _686
REMARK  208  A    between atoms: _686  and  _687
REMARK  209  A    between atoms: _686  and  _689
REMARK  210  A    between atoms: _689  and  _690
REMARK  211  A    between atoms: _689  and  _691
REMARK  212  A    between atoms: _690  and  _692
REMARK  213  A    between atoms: _704  and  _705
REMARK  214  A    between atoms: _705  and  _706
REMARK  215  A    between atoms: _705  and  _708
REMARK  216  A    between atoms: _708  and  _709
REMARK  217  A    between atoms: _709  and  _710
REMARK  218  A    between atoms: _710  and  _711
REMARK  219  A    between atoms: _728  and  _729
REMARK  220  A    between atoms: _729  and  _730
REMARK  221  A    between atoms: _729  and  _732
REMARK  222  A    between atoms: _732  and  _733
REMARK  223  A    between atoms: _738  and  _739
REMARK  224  A    between atoms: _749  and  _750
REMARK  225  A    between atoms: _750  and  _751
REMARK  226  A    between atoms: _750  and  _753
REMARK  227  A    between atoms: _753  and  _754
REMARK  228  A    between atoms: _754  and  _755
REMARK  229  A    between atoms: _764  and  _765
REMARK  230  A    between atoms: _765  and  _766
REMARK  231  A    between atoms: _765  and  _768
REMARK  232  A    between atoms: _772  and  _773
REMARK  233  A    between atoms: _773  and  _774
REMARK  234  A    between atoms: _773  and  _776
REMARK  235  A    between atoms: _776  and  _777
REMARK  236  A    between atoms: _777  and  _778
REMARK  237  A    between atoms: _777  and  _779
REMARK  238  A    between atoms: _791  and  _792
REMARK  239  A    between atoms: _792  and  _793
REMARK  240  A    between atoms: _792  and  _795
REMARK  241  A    between atoms: _795  and  _796
REMARK  242  A    between atoms: _795  and  _797
REMARK  243  A    between atoms: _805  and  _806
REMARK  244  A    between atoms: _806  and  _807
REMARK  245  A    between atoms: _806  and  _809
REMARK  246  A    between atoms: _809  and  _810
REMARK  247  A    between atoms: _818  and  _819
REMARK  248  A    between atoms: _831  and  _832
REMARK  249  A    between atoms: _832  and  _833
REMARK  250  A    between atoms: _832  and  _835
REMARK  251  A    between atoms: _835  and  _836
REMARK  252  A    between atoms: _842  and  _843
REMARK  253  A    between atoms: _843  and  _844
REMARK  254  A    between atoms: _843  and  _846
REMARK  255  A    between atoms: _846  and  _847
REMARK  256  A    between atoms: _847  and  _848
REMARK  257  A    between atoms: _848  and  _849
REMARK  258  A    between atoms: _849  and  _850
REMARK  259  A    between atoms: _864  and  _865
REMARK  260  A    between atoms: _865  and  _866
REMARK  261  A    between atoms: _865  and  _868
REMARK  262  A    between atoms: _868  and  _869
REMARK  263  A    between atoms: _869  and  _870
REMARK  264  A    between atoms: _869  and  _871
REMARK  265  A    between atoms: _883  and  _884
REMARK  266  A    between atoms: _884  and  _885
REMARK  267  A    between atoms: _884  and  _887
REMARK  268  A    between atoms: _887  and  _888
REMARK  269  A    between atoms: _895  and  _896
REMARK  270  A    between atoms: _896  and  _897
REMARK  271  A    between atoms: _896  and  _899
REMARK  272  A    between atoms: _899  and  _900
REMARK  273  A    between atoms: _906  and  _907
REMARK  274  A    between atoms: _907  and  _908
REMARK  275  A    between atoms: _913  and  _914
REMARK  276  A    between atoms: _914  and  _915
REMARK  277  A    between atoms: _914  and  _917
REMARK  278  A    between atoms: _917  and  _918
REMARK  279  A    between atoms: _918  and  _919
REMARK  280  A    between atoms: _919  and  _920
REMARK  281  A    between atoms: _920  and  _921
REMARK  282  A    between atoms: _935  and  _936
REMARK  283  A    between atoms: _936  and  _937
REMARK  284  A    between atoms: _936  and  _939
REMARK  285  A    between atoms: _939  and  _940
REMARK  286  A    between atoms: _940  and  _941
REMARK  287  A    between atoms: _950  and  _951
REMARK  288  A    between atoms: _951  and  _952
REMARK  289  A    between atoms: _951  and  _954
REMARK  290  A    between atoms: _954  and  _955
REMARK  291  A    between atoms: _955  and  _956
REMARK  292  A    between atoms: _955  and  _957
REMARK  293  A    between atoms: _969  and  _970
REMARK  294  A    between atoms: _970  and  _971
REMARK  295  A    between atoms: _970  and  _973
REMARK  296  A    between atoms: _973  and  _974
REMARK  297  A    between atoms: _986  and  _987
REMARK  298  A    between atoms: _987  and  _988
REMARK  299  A    between atoms: _987  and  _990
REMARK  300  A    between atoms: _990  and  _991
REMARK  301  A    between atoms: _990  and  _992
REMARK  302  A    between atoms: _991  and  _993
REMARK  303  A    between atoms: _1005  and  _1006
REMARK  304  A    between atoms: _1006  and  _1007
REMARK  305  A    between atoms: _1006  and  _1009
REMARK  306  A    between atoms: _1009  and  _1010
REMARK  307  A    between atoms: _1019  and  _1020
REMARK  308  A    between atoms: _1020  and  _1021
REMARK  309  A    between atoms: _1020  and  _1023
REMARK  310  A    between atoms: _1023  and  _1024
REMARK  311  A    between atoms: _1024  and  _1025
REMARK  312  A    between atoms: _1024  and  _1026
REMARK  313  A    between atoms: _1038  and  _1039
REMARK  314  A    between atoms: _1039  and  _1040
REMARK  315  A    between atoms: _1039  and  _1042
REMARK  316  A    between atoms: _1042  and  _1043
REMARK  317  A    between atoms: _1042  and  _1044
REMARK  318  A    between atoms: _1043  and  _1045
REMARK  319  A    between atoms: _1058  and  _1059
REMARK  320  A    between atoms: _1071  and  _1072
REMARK  321  A    between atoms: _1072  and  _1073
REMARK  322  A    between atoms: _1072  and  _1075
REMARK  323  A    between atoms: _1075  and  _1076
REMARK  324  A    between atoms: _1085  and  _1086
REMARK  325  A    between atoms: _1086  and  _1087
REMARK  326  A    between atoms: _1086  and  _1089
REMARK  327  A    between atoms: _1089  and  _1090
REMARK  328  A    between atoms: _1090  and  _1091
REMARK  329  A    between atoms: _1091  and  _1092
REMARK  330  A    between atoms: _1092  and  _1093
REMARK  331  A    between atoms: _1107  and  _1108
REMARK  332  A    between atoms: _1108  and  _1109
REMARK  333  A    between atoms: _1108  and  _1111
REMARK  334  A    between atoms: _1111  and  _1112
REMARK  335  A    between atoms: _1112  and  _1113
REMARK  336  A    between atoms: _1124  and  _1125
REMARK  337  A    between atoms: _1125  and  _1126
REMARK  338  A    between atoms: _1125  and  _1128
REMARK  339  A    between atoms: _1128  and  _1129
REMARK  340  A    between atoms: _1136  and  _1137
REMARK  341  A    between atoms: _1137  and  _1138
REMARK  342  A    between atoms: _1137  and  _1140
REMARK  343  A    between atoms: _1140  and  _1141
REMARK  344  A    between atoms: _1141  and  _1142
REMARK  345  A    between atoms: _1142  and  _1143
REMARK  346  A    between atoms: _1160  and  _1161
REMARK  347  A    between atoms: _1161  and  _1162
REMARK  348  A    between atoms: _1161  and  _1164
REMARK  349  A    between atoms: _1164  and  _1165
REMARK  350  A    between atoms: _1164  and  _1166
REMARK  351  A    between atoms: _1174  and  _1175
REMARK  352  A    between atoms: _1175  and  _1176
REMARK  353  A    between atoms: _1175  and  _1178
REMARK  354  A    between atoms: _1178  and  _1179
REMARK  355  A    between atoms: _1179  and  _1180
REMARK  356  A    between atoms: _1179  and  _1181
REMARK  357  A    between atoms: _1193  and  _1194
REMARK  358  A    between atoms: _1194  and  _1195
REMARK  359  A    between atoms: _1194  and  _1197
REMARK  360  A    between atoms: _1197  and  _1198
REMARK  361  A    between atoms: _1197  and  _1199
REMARK  362  A    between atoms: _1207  and  _1208
REMARK  363  A    between atoms: _1208  and  _1209
REMARK  364  A    between atoms: _1208  and  _1211
REMARK  365  A    between atoms: _1211  and  _1212
REMARK  366  A    between atoms: _1211  and  _1213
REMARK  367  A    between atoms: _1212  and  _1214
REMARK  368  A    between atoms: _1226  and  _1227
REMARK  369  A    between atoms: _1227  and  _1228
REMARK  370  A    between atoms: _1227  and  _1230
REMARK  371  A    between atoms: _1230  and  _1231
REMARK  372  A    between atoms: _1230  and  _1232
REMARK  373  A    between atoms: _1242  and  _1243
REMARK  374  A    between atoms: _1243  and  _1244
REMARK  375  A    between atoms: _1243  and  _1246
REMARK  376  A    between atoms: _1246  and  _1247
REMARK  377  A    between atoms: _1254  and  _1255
REMARK  378  A    between atoms: _1255  and  _1256
REMARK  379  A    between atoms: _1255  and  _1258
REMARK  380  A    between atoms: _1258  and  _1259
REMARK  381  A    between atoms: _1258  and  _1260
REMARK  382  A    between atoms: _1268  and  _1269
REMARK  383  A    between atoms: _1269  and  _1270
REMARK  384  A    between atoms: _1275  and  _1276
REMARK  385  A    between atoms: _1276  and  _1277
REMARK  386  A    between atoms: _1276  and  _1279
REMARK  387  A    between atoms: _1279  and  _1280
REMARK  388  A    between atoms: _1279  and  _1281
REMARK  389  A    between atoms: _1280  and  _1282
REMARK  390  A    between atoms: _1294  and  _1295
REMARK  391  A    between atoms: _1295  and  _1296
REMARK  392  A    between atoms: _1301  and  _1302
REMARK  393  A    between atoms: _1302  and  _1303
REMARK  394  A    between atoms: _1302  and  _1305
REMARK  395  A    between atoms: _1305  and  _1306
REMARK  396  A    between atoms: _1306  and  _1307
REMARK  397  A    between atoms: _1307  and  _1308
REMARK  398  A    between atoms: _1318  and  _1319
REMARK  399  A    between atoms: _1319  and  _1320
REMARK  400  A    between atoms: _1319  and  _1322
REMARK  401  A    between atoms: _1322  and  _1323
REMARK  402  A    between atoms: _1322  and  _1324
REMARK  403  A    between atoms: _1332  and  _1333
REMARK  404  A    between atoms: _1333  and  _1334
REMARK  405  A    between atoms: _1333  and  _1336
REMARK  406  A    between atoms: _1336  and  _1337
REMARK  407  A    between atoms: _1337  and  _1338
REMARK  408  A    between atoms: _1338  and  _1339
REMARK  409  A    between atoms: _1339  and  _1340
REMARK  410  A    between atoms: _1354  and  _1355
REMARK  411  A    between atoms: _1355  and  _1356
REMARK  412  A    between atoms: _1355  and  _1358
REMARK  413  A    between atoms: _1364  and  _1365
REMARK  414  A    between atoms: _1365  and  _1366
REMARK  415  A    between atoms: _1365  and  _1368
REMARK  416  A    between atoms: _1368  and  _1369
REMARK  417  A    between atoms: _1376  and  _1377
REMARK  418  A    between atoms: _1377  and  _1378
REMARK  419  A    between atoms: _1377  and  _1380
REMARK  420  A    between atoms: _1380  and  _1381
REMARK  421  A    between atoms: _1381  and  _1382
REMARK  422  A    between atoms: _1381  and  _1383
REMARK  423  A    between atoms: _1395  and  _1396
REMARK  424  A    between atoms: _1396  and  _1399
REMARK  425  A    between atoms: _1399  and  _1400
REMARK  426  A    between atoms: _1399  and  _1401
REMARK  427  A    between atoms: _1400  and  _1402
REMARK  428  A    between atoms: _1422  and  _1425
REMARK  429  A    between atoms: _1424  and  _1428
REMARK  430  A    between atoms: _1425  and  _1427
REMARK  431  A    between atoms: _1443  and  _1444
REMARK  432  A    between atoms: _1443  and  _1446
REMARK  433  A    between atoms: _1446  and  _1447
REMARK  434  A    between atoms: _1457  and  _1458
REMARK  435  A    between atoms: _1458  and  _1459
REMARK  436  A    between atoms: _1458  and  _1461
REMARK  437  A    between atoms: _1461  and  _1462
REMARK  438  A    between atoms: _1462  and  _1463
REMARK  439  A    between atoms: _1462  and  _1464
REMARK  440  A    between atoms: _1476  and  _1477
REMARK  441  A    between atoms: _1477  and  _1478
REMARK  442  A    between atoms: _1483  and  _1484
REMARK  443  A    between atoms: _1484  and  _1485
REMARK  444  A    between atoms: _1484  and  _1487
REMARK  445  A    between atoms: _1487  and  _1488
REMARK  446  A    between atoms: _1487  and  _1489
REMARK  447  A    between atoms: _1497  and  _1498
REMARK  448  A    between atoms: _1498  and  _1499
REMARK  449  A    between atoms: _1498  and  _1501
REMARK  450  A    between atoms: _1501  and  _1502
REMARK  451  A    between atoms: _1501  and  _1503
REMARK  452  A    between atoms: _1502  and  _1504
REMARK  453  A    between atoms: _1516  and  _1517
REMARK  454  A    between atoms: _1517  and  _1518
REMARK  455  A    between atoms: _1517  and  _1520
REMARK  456  A    between atoms: _1526  and  _1527
REMARK  457  A    between atoms: _1527  and  _1528
REMARK  458  A    between atoms: _1527  and  _1530
REMARK  459  A    between atoms: _1530  and  _1531
REMARK  460  A    between atoms: _1531  and  _1532
REMARK  461  A    between atoms: _1532  and  _1533
REMARK  462  A    between atoms: _1533  and  _1534
REMARK  463  A    between atoms: _1548  and  _1549
REMARK  464  A    between atoms: _1549  and  _1550
REMARK  465  A    between atoms: _1549  and  _1552
REMARK  466  A    between atoms: _1552  and  _1553
REMARK  467  A    between atoms: _1559  and  _1560
REMARK  468  A    between atoms: _1560  and  _1561
REMARK  469  A    between atoms: _1566  and  _1567
REMARK  470  A    between atoms: _1567  and  _1568
REMARK  471  A    between atoms: _1567  and  _1570
REMARK  472  A    between atoms: _1570  and  _1571
REMARK  473  A    between atoms: _1570  and  _1572
REMARK  474  A    between atoms: _1580  and  _1581
REMARK  475  A    between atoms: _1581  and  _1582
REMARK  476  A    between atoms: _1581  and  _1584
REMARK  477  A    between atoms: _1584  and  _1585
REMARK  478  A    between atoms: _1585  and  _1586
REMARK  479  A    between atoms: _1586  and  _1587
REMARK  480  A    between atoms: _1587  and  _1588
REMARK  481  A    between atoms: _1602  and  _1603
REMARK  482  A    between atoms: _1603  and  _1604
REMARK  483  A    between atoms: _1603  and  _1606
REMARK  484  A    between atoms: _1612  and  _1613
REMARK  485  A    between atoms: _1613  and  _1614
REMARK  486  A    between atoms: _1613  and  _1616
REMARK  487  A    between atoms: _1616  and  _1617
REMARK  488  A    between atoms: _1632  and  _1633
REMARK  489  A    between atoms: _1633  and  _1634
REMARK  490  A    between atoms: _1633  and  _1636
REMARK  491  A    between atoms: _1636  and  _1637
REMARK  492  A    between atoms: _1637  and  _1638
REMARK  493  A    between atoms: _1638  and  _1639
REMARK  494  A    between atoms: _1649  and  _1650
REMARK  495  A    between atoms: _1650  and  _1651
REMARK  496  A    between atoms: _1650  and  _1653
REMARK  497  A    between atoms: _1653  and  _1654
REMARK  498  A    between atoms: _1654  and  _1655
REMARK  499  A    between atoms: _1664  and  _1665
REMARK  500  A    between atoms: _1665  and  _1666
REMARK  501  A    between atoms: _1665  and  _1668
REMARK  502  A    between atoms: _1674  and  _1675
REMARK  503  A    between atoms: _1675  and  _1676
REMARK  504  A    between atoms: _1675  and  _1678
REMARK  505  A    between atoms: _1678  and  _1679
REMARK  506  A    between atoms: _1679  and  _1680
REMARK  507  A    between atoms: _1679  and  _1681
REMARK  508  A    between atoms: _1693  and  _1694
REMARK  509  A    between atoms: _1694  and  _1695
REMARK  510  A    between atoms: _1694  and  _1697
REMARK  511  A    between atoms: _1697  and  _1698
REMARK  512  A    between atoms: _1698  and  _1699
REMARK  513  A    between atoms: _1710  and  _1711
REMARK  514  A    between atoms: _1711  and  _1712
REMARK  515  A    between atoms: _1711  and  _1714
REMARK  516  A    between atoms: _1720  and  _1721
REMARK  517  A    between atoms: _1721  and  _1722
REMARK  518  A    between atoms: _1727  and  _1728
REMARK  519  A    between atoms: _1728  and  _1729
REMARK  520  A    between atoms: _1728  and  _1731
REMARK  521  A    between atoms: _1737  and  _1738
REMARK  522  A    between atoms: _1738  and  _1739
REMARK  523  A    between atoms: _1738  and  _1741
REMARK  524  A    between atoms: _1741  and  _1742
REMARK  525  A    between atoms: _1749  and  _1750
REMARK  526  A    between atoms: _1750  and  _1751
REMARK  527  A    between atoms: _1750  and  _1753
REMARK  528  A    between atoms: _1753  and  _1754
REMARK  529  A    between atoms: _1753  and  _1755
REMARK  530  A    between atoms: _1754  and  _1756
REMARK  531  A    between atoms: _1768  and  _1769
REMARK  532  A    between atoms: _1769  and  _1772
REMARK  533  A    between atoms: _1772  and  _1773
REMARK  534  A    between atoms: _1791  and  _1793
REMARK  535  A    between atoms: _1792  and  _1794
REMARK  536  A    between atoms: _1814  and  _1815
REMARK  537  A    between atoms: _1814  and  _1817
REMARK  538  A    between atoms: _1817  and  _1818
REMARK  539  A    between atoms: _1817  and  _1819
REMARK  540  A    between atoms: _1818  and  _1820
REMARK  541  A    between atoms: _1833  and  _1834
REMARK  542  A    between atoms: _1834  and  _1835
REMARK  543  A    between atoms: _1840  and  _1841
REMARK  544  A    between atoms: _1841  and  _1842
REMARK  545  A    between atoms: _1841  and  _1844
REMARK  546  A    between atoms: _1844  and  _1845
REMARK  547  A    between atoms: _1845  and  _1846
REMARK  548  A    between atoms: _1857  and  _1858
REMARK  549  A    between atoms: _1858  and  _1859
REMARK  550  A    between atoms: _1858  and  _1861
REMARK  551  A    between atoms: _1861  and  _1862
REMARK  552  A    between atoms: _1877  and  _1878
REMARK  553  A    between atoms: _1878  and  _1879
REMARK  554  A    between atoms: _1884  and  _1885
REMARK  555  A    between atoms: _1885  and  _1886
REMARK  556  A    between atoms: _1885  and  _1888
REMARK  557  A    between atoms: _1888  and  _1889
REMARK  558  A    between atoms: _1888  and  _1890
REMARK  559  A    between atoms: _1900  and  _1901
REMARK  560  A    between atoms: _1901  and  _1902
REMARK  561  A    between atoms: _1907  and  _1908
REMARK  562  A    between atoms: _1908  and  _1909
REMARK  563  A    between atoms: _1908  and  _1911
REMARK  564  A    between atoms: _1911  and  _1912
REMARK  565  A    between atoms: _1927  and  _1928
REMARK  566  A    between atoms: _1928  and  _1929
REMARK  567  A    between atoms: _1928  and  _1931
REMARK  568  A    between atoms: _1931  and  _1932
REMARK  569  A    between atoms: _1937  and  _1938
REMARK  570  A    between atoms: _1948  and  _1949
REMARK  571  A    between atoms: _1949  and  _1950
REMARK  572  A    between atoms: _1949  and  _1952
REMARK  573  A    between atoms: _1952  and  _1953
REMARK  574  A    between atoms: _1959  and  _1960
REMARK  575  A    between atoms: _1960  and  _1961
REMARK  576  A    between atoms: _1960  and  _1963
REMARK  577  A    between atoms: _1969  and  _1970
REMARK  578  A    between atoms: _1970  and  _1971
REMARK  579  A    between atoms: _1970  and  _1973
REMARK  580  A    between atoms: _1973  and  _1974
REMARK  581  A    between atoms: _1979  and  _1980
REMARK  582  A    between atoms: _1990  and  _1991
REMARK  583  A    between atoms: _1991  and  _1992
REMARK  584  A    between atoms: _1991  and  _1994
REMARK  585  A    between atoms: _1994  and  _1995
REMARK  586  A    between atoms: _1995  and  _1996
REMARK  587  A    between atoms: _1995  and  _1997
REMARK  588  A    between atoms: _2009  and  _2010
REMARK  589  A    between atoms: _2010  and  _2011
REMARK  590  A    between atoms: _2010  and  _2013
REMARK  591  A    between atoms: _2013  and  _2014
REMARK  592  A    between atoms: _2013  and  _2015
REMARK  593  A    between atoms: _2025  and  _2026
REMARK  594  A    between atoms: _2026  and  _2027
REMARK  595  A    between atoms: _2026  and  _2029
REMARK  596  A    between atoms: _2035  and  _2036
REMARK  597  A    between atoms: _2036  and  _2037
REMARK  598  A    between atoms: _2036  and  _2039
REMARK  599  A    between atoms: _2039  and  _2040
REMARK  600  A    between atoms: _2040  and  _2041
REMARK  601  A    between atoms: _2050  and  _2051
REMARK  602  A    between atoms: _2051  and  _2052
REMARK  603  A    between atoms: _2051  and  _2054
REMARK  604  A    between atoms: _2054  and  _2055
REMARK  605  A    between atoms: _2055  and  _2056
REMARK  606  A    between atoms: _2056  and  _2057
REMARK  607  A    between atoms: _2057  and  _2058
REMARK  608  A    between atoms: _2072  and  _2073
REMARK  609  A    between atoms: _2073  and  _2074
REMARK  610  A    between atoms: _2073  and  _2076
REMARK  611  A    between atoms: _2076  and  _2077
REMARK  612  A    between atoms: _2076  and  _2078
REMARK  613  A    between atoms: _2088  and  _2089
REMARK  614  A    between atoms: _2089  and  _2090
REMARK  615  A    between atoms: _2089  and  _2092
REMARK  616  A    between atoms: _2092  and  _2093
REMARK  617  A    between atoms: _2092  and  _2094
REMARK  618  A    between atoms: _2102  and  _2103
REMARK  619  A    between atoms: _2103  and  _2104
REMARK  620  A    between atoms: _2103  and  _2106
REMARK  621  A    between atoms: _2106  and  _2107
REMARK  622  A    between atoms: _2106  and  _2108
REMARK  623  A    between atoms: _2118  and  _2119
REMARK  624  A    between atoms: _2119  and  _2120
REMARK  625  A    between atoms: _2119  and  _2122
REMARK  626  A    between atoms: _2122  and  _2123
REMARK  627  A    between atoms: _2122  and  _2124
REMARK  628  A    between atoms: _2123  and  _2125
REMARK  629  A    between atoms: _2137  and  _2138
REMARK  630  A    between atoms: _2138  and  _2139
REMARK  631  A    between atoms: _2138  and  _2141
REMARK  632  A    between atoms: _2141  and  _2142
REMARK  633  A    between atoms: _2141  and  _2143
REMARK  634  A    between atoms: _2151  and  _2152
REMARK  635  A    between atoms: _2152  and  _2153
REMARK  636  A    between atoms: _2152  and  _2155
REMARK  637  A    between atoms: _2155  and  _2156
REMARK  638  A    between atoms: _2156  and  _2157
REMARK  639  A    between atoms: _2157  and  _2158
REMARK  640  A    between atoms: _2158  and  _2159
REMARK  641  A    between atoms: _2173  and  _2174
REMARK  642  A    between atoms: _2174  and  _2175
REMARK  643  A    between atoms: _2174  and  _2177
REMARK  644  A    between atoms: _2177  and  _2178
REMARK  645  A    between atoms: _2190  and  _2191
REMARK  646  A    between atoms: _2191  and  _2192
REMARK  647  A    between atoms: _2191  and  _2194
REMARK  648  A    between atoms: _2194  and  _2195
REMARK  649  A    between atoms: _2204  and  _2205
REMARK  650  A    between atoms: _2205  and  _2206
REMARK  651  A    between atoms: _2205  and  _2208
REMARK  652  A    between atoms: _2208  and  _2209
REMARK  653  A    between atoms: _2216  and  _2217
REMARK  654  A    between atoms: _2217  and  _2218
REMARK  655  A    between atoms: _2217  and  _2220
REMARK  656  A    between atoms: _2220  and  _2221
REMARK  657  A    between atoms: _2228  and  _2229
REMARK  658  A    between atoms: _2229  and  _2230
REMARK  659  A    between atoms: _2229  and  _2232
REMARK  660  A    between atoms: _2232  and  _2233
REMARK  661  A    between atoms: _2233  and  _2234
REMARK  662  A    between atoms: _2243  and  _2244
REMARK  663  A    between atoms: _2244  and  _2245
REMARK  664  A    between atoms: _2244  and  _2247
REMARK  665  A    between atoms: _2247  and  _2248
REMARK  666  A    between atoms: _2248  and  _2249
REMARK  667  A    between atoms: _2260  and  _2261
REMARK  668  A    between atoms: _2261  and  _2262
REMARK  669  A    between atoms: _2261  and  _2264
REMARK  670  A    between atoms: _2264  and  _2265
REMARK  671  A    between atoms: _2270  and  _2271
REMARK  672  A    between atoms: _2281  and  _2282
REMARK  673  A    between atoms: _2282  and  _2283
REMARK  674  A    between atoms: _2282  and  _2285
REMARK  675  A    between atoms: _2291  and  _2292
REMARK  676  A    between atoms: _2292  and  _2293
REMARK  677  A    between atoms: _2292  and  _2295
REMARK  678  A    between atoms: _2295  and  _2296
REMARK  679  A    between atoms: _2315  and  _2316
REMARK  680  A    between atoms: _2316  and  _2317
REMARK  681  A    between atoms: _2316  and  _2319
REMARK  682  A    between atoms: _2319  and  _2320
REMARK  683  A    between atoms: _2320  and  _2321
REMARK  684  A    between atoms: _2330  and  _2331
REMARK  685  A    between atoms: _2331  and  _2332
REMARK  686  A    between atoms: _2331  and  _2334
REMARK  687  A    between atoms: _2334  and  _2335
REMARK  688  A    between atoms: _2341  and  _2342
REMARK  689  A    between atoms: _2342  and  _2343
REMARK  690  A    between atoms: _2342  and  _2345
REMARK  691  A    between atoms: _2345  and  _2346
REMARK  692  A    between atoms: _2352  and  _2353
REMARK  693  A    between atoms: _2353  and  _2354
REMARK  694  A    between atoms: _2353  and  _2356
REMARK  695  A    between atoms: _2362  and  _2363
REMARK  696  A    between atoms: _2363  and  _2364
REMARK  697  A    between atoms: _2369  and  _2370
REMARK  698  A    between atoms: _2370  and  _2371
REMARK  699  A    between atoms: _2376  and  _2377
REMARK  700  A    between atoms: _2377  and  _2378
REMARK  701  A    between atoms: _2377  and  _2380
REMARK  702  A    between atoms: _2380  and  _2381
REMARK  703  A    between atoms: _2387  and  _2388
REMARK  704  A    between atoms: _2388  and  _2389
REMARK  705  A    between atoms: _2388  and  _2391
REMARK  706  A    between atoms: _2391  and  _2392
REMARK  707  A    between atoms: _2407  and  _2408
REMARK  708  A    between atoms: _2408  and  _2409
REMARK  709  A    between atoms: _2408  and  _2411
REMARK  710  A    between atoms: _2411  and  _2412
REMARK  711  A    between atoms: _2411  and  _2413
REMARK  712  A    between atoms: _2421  and  _2422
REMARK  713  A    between atoms: _2422  and  _2423
REMARK  714  A    between atoms: _2422  and  _2425
REMARK  715  A    between atoms: _2425  and  _2426
REMARK  716  A    between atoms: _2425  and  _2427
REMARK  717  A    between atoms: _2437  and  _2438
REMARK  718  A    between atoms: _2438  and  _2439
REMARK  719  A    between atoms: _2438  and  _2441
REMARK  720  A    between atoms: _2441  and  _2442
REMARK  721  A    between atoms: _2442  and  _2443
REMARK  722  A    between atoms: _2443  and  _2444
REMARK  723  A    between atoms: _2461  and  _2462
REMARK  724  A    between atoms: _2462  and  _2463
REMARK  725  A    between atoms: _2462  and  _2465
REMARK  726  A    between atoms: _2465  and  _2466
REMARK  727  A    between atoms: _2465  and  _2467
REMARK  728  A    between atoms: _2475  and  _2476
REMARK  729  A    between atoms: _2476  and  _2477
REMARK  730  A    between atoms: _2476  and  _2479
REMARK  731  A    between atoms: _2479  and  _2480
REMARK  732  A    between atoms: _2487  and  _2488
REMARK  733  A    between atoms: _2488  and  _2489
REMARK  734  A    between atoms: _2488  and  _2491
REMARK  735  A    between atoms: _2491  and  _2492
REMARK  736  A    between atoms: _2491  and  _2493
REMARK  737  A    between atoms: _2501  and  _2502
REMARK  738  A    between atoms: _2502  and  _2503
REMARK  739  A    between atoms: _2508  and  _2509
REMARK  740  A    between atoms: _2509  and  _2510
REMARK  741  A    between atoms: _2509  and  _2512
REMARK  742  A    between atoms: _2512  and  _2513
REMARK  743  A    between atoms: _2513  and  _2514
REMARK  744  A    between atoms: _2524  and  _2525
REMARK  745  A    between atoms: _2537  and  _2538
REMARK  746  A    between atoms: _2538  and  _2539
REMARK  747  A    between atoms: _2538  and  _2541
REMARK  748  A    between atoms: _2541  and  _2542
REMARK  749  A    between atoms: _2542  and  _2543
REMARK  750  A    between atoms: _2543  and  _2544
REMARK  751  A    between atoms: _2554  and  _2555
REMARK  752  A    between atoms: _2555  and  _2556
REMARK  753  A    between atoms: _2561  and  _2562
REMARK  754  A    between atoms: _2562  and  _2563
REMARK  755  A    between atoms: _2562  and  _2565
REMARK  756  A    between atoms: _2565  and  _2566
REMARK  757  A    between atoms: _2566  and  _2567
REMARK  758  A    between atoms: _2567  and  _2568
REMARK  759  A    between atoms: _2585  and  _2586
REMARK  760  A    between atoms: _2586  and  _2587
REMARK  761  A    between atoms: _2592  and  _2593
REMARK  762  A    between atoms: _2593  and  _2594
REMARK  763  A    between atoms: _2593  and  _2596
REMARK  764  A    between atoms: _2596  and  _2597
REMARK  765  A    between atoms: _2596  and  _2598
REMARK  766  A    between atoms: _2606  and  _2607
REMARK  767  A    between atoms: _2607  and  _2608
REMARK  768  A    between atoms: _2607  and  _2610
REMARK  769  A    between atoms: _2610  and  _2611
REMARK  770  A    between atoms: _2611  and  _2612
REMARK  771  A    between atoms: _2612  and  _2613
REMARK  772  A    between atoms: _2613  and  _2614
REMARK  773  A    between atoms: _2628  and  _2629
REMARK  774  A    between atoms: _2629  and  _2630
REMARK  775  A    between atoms: _2629  and  _2632
REMARK  776  A    between atoms: _2632  and  _2633
REMARK  777  A    between atoms: _2632  and  _2634
REMARK  778  A    between atoms: _2644  and  _2645
REMARK  779  A    between atoms: _2645  and  _2646
REMARK  780  A    between atoms: _2645  and  _2648
REMARK  781  A    between atoms: _2648  and  _2649
REMARK  782  A    between atoms: _2648  and  _2650
REMARK  783  A    between atoms: _2649  and  _2651
REMARK  784  A    between atoms: _2663  and  _2664
REMARK  785  A    between atoms: _2664  and  _2665
REMARK  786  A    between atoms: _2664  and  _2667
REMARK  787  A    between atoms: _2667  and  _2668
REMARK  788  A    between atoms: _2668  and  _2669
REMARK  789  A    between atoms: _2668  and  _2670
REMARK  790  A    between atoms: _2682  and  _2683
REMARK  791  A    between atoms: _2683  and  _2684
REMARK  792  A    between atoms: _2683  and  _2686
REMARK  793  A    between atoms: _2686  and  _2687
REMARK  794  A    between atoms: _2699  and  _2700
REMARK  795  A    between atoms: _2700  and  _2701
REMARK  796  A    between atoms: _2700  and  _2703
REMARK  797  A    between atoms: _2703  and  _2704
REMARK  798  A    between atoms: _2704  and  _2705
REMARK  799  A    between atoms: _2704  and  _2706
REMARK  800  A    between atoms: _2718  and  _2719
REMARK  801  A    between atoms: _2719  and  _2720
REMARK  802  A    between atoms: _2719  and  _2722
REMARK  803  A    between atoms: _2722  and  _2723
REMARK  804  A    between atoms: _2723  and  _2724
REMARK  805  A    between atoms: _2724  and  _2725
REMARK  806  A    between atoms: _2725  and  _2726
REMARK  807  A    between atoms: _2740  and  _2741
REMARK  808  A    between atoms: _2741  and  _2742
REMARK  809  A    between atoms: _2741  and  _2744
REMARK  810  A    between atoms: _2744  and  _2745
REMARK  811  A    between atoms: _2745  and  _2746
REMARK  812  A    between atoms: _2755  and  _2756
REMARK  813  A    between atoms: _2756  and  _2757
REMARK  814  A    between atoms: _2756  and  _2759
REMARK  815  A    between atoms: _2759  and  _2760
REMARK  816  A    between atoms: _2767  and  _2768
REMARK  817  A    between atoms: _2768  and  _2769
REMARK  818  A    between atoms: _2768  and  _2771
REMARK  819  A    between atoms: _2771  and  _2772
REMARK  820  A    between atoms: _2772  and  _2773
REMARK  821  A    between atoms: _2784  and  _2785
REMARK  822  A    between atoms: _2785  and  _2786
REMARK  823  A    between atoms: _2785  and  _2788
REMARK  824  A    between atoms: _2788  and  _2789
REMARK  825  A    between atoms: _2788  and  _2790
REMARK  826  A    between atoms: _2798  and  _2799
REMARK  827  A    between atoms: _2799  and  _2800
REMARK  828  A    between atoms: _2799  and  _2802
REMARK  829  A    between atoms: _2802  and  _2803
REMARK  830  A    between atoms: _2803  and  _2804
REMARK  831  A    between atoms: _2813  and  _2814
REMARK  832  A    between atoms: _2814  and  _2815
REMARK  833  A    between atoms: _2814  and  _2817
REMARK  834  A    between atoms: _2817  and  _2818
REMARK  835  A    between atoms: _2823  and  _2824
REMARK  836  A    between atoms: _2834  and  _2835
REMARK  837  A    between atoms: _2835  and  _2838
REMARK  838  A    between atoms: _2838  and  _2839
REMARK  839  A    between atoms: _2839  and  _2840
REMARK  840  A    between atoms: _2839  and  _2841
REMARK  841  A    between atoms: _2884  and  _2885
REMARK  842  A    between atoms: _2884  and  _2887
REMARK  843  A    between atoms: _2887  and  _2888
REMARK  844  A    between atoms: _2888  and  _2889
REMARK  845  A    between atoms: _2899  and  _2900
REMARK  846  A    between atoms: _2900  and  _2901
REMARK  847  A    between atoms: _2900  and  _2903
REMARK  848  A    between atoms: _2903  and  _2904
REMARK  849  A    between atoms: _2904  and  _2905
REMARK  850  A    between atoms: _2905  and  _2906
REMARK  851  A    between atoms: _2923  and  _2924
REMARK  852  A    between atoms: _2924  and  _2925
REMARK  853  A    between atoms: _2924  and  _2927
REMARK  854  A    between atoms: _2927  and  _2928
REMARK  855  A    between atoms: _2928  and  _2929
REMARK  856  A    between atoms: _2929  and  _2930
REMARK  857  A    between atoms: _2947  and  _2948
REMARK  858  A    between atoms: _2948  and  _2949
REMARK  859  A    between atoms: _2948  and  _2951
REMARK  860  A    between atoms: _2951  and  _2952
REMARK  861  A    between atoms: _2951  and  _2953
REMARK  862  A    between atoms: _2952  and  _2954
REMARK  863  A    between atoms: _2966  and  _2967
REMARK  864  A    between atoms: _2967  and  _2968
REMARK  865  A    between atoms: _2967  and  _2970
REMARK  866  A    between atoms: _2970  and  _2971
REMARK  867  A    between atoms: _2971  and  _2972
REMARK  868  A    between atoms: _2972  and  _2973
REMARK  869  A    between atoms: _2973  and  _2974
REMARK  870  A    between atoms: _2988  and  _2989
REMARK  871  A    between atoms: _2989  and  _2990
REMARK  872  A    between atoms: _2989  and  _2992
REMARK  873  A    between atoms: _2992  and  _2993
REMARK  874  A    between atoms: _2993  and  _2994
REMARK  875  A    between atoms: _3003  and  _3004
REMARK  876  A    between atoms: _3004  and  _3005
REMARK  877  A    between atoms: _3004  and  _3007
REMARK  878  A    between atoms: _3007  and  _3008
REMARK  879  A    between atoms: _3007  and  _3009
REMARK  880  A    between atoms: _3008  and  _3010
REMARK  881  A    between atoms: _3022  and  _3023
REMARK  882  A    between atoms: _3023  and  _3024
REMARK  883  A    between atoms: _3023  and  _3026
REMARK  884  A    between atoms: _3026  and  _3027
REMARK  885  A    between atoms: _3026  and  _3028
REMARK  886  A    between atoms: _3038  and  _3039
REMARK  887  A    between atoms: _3039  and  _3040
REMARK  888  A    between atoms: _3039  and  _3042
REMARK  889  A    between atoms: _3042  and  _3043
REMARK  890  A    between atoms: _3043  and  _3044
REMARK  891  A    between atoms: _3044  and  _3045
REMARK  892  A    between atoms: _3045  and  _3046
REMARK  893  A    between atoms: _3060  and  _3061
REMARK  894  A    between atoms: _3061  and  _3062
REMARK  895  A    between atoms: _3061  and  _3064
REMARK  896  A    between atoms: _3064  and  _3065
REMARK  897  A    between atoms: _3065  and  _3066
REMARK  898  A    between atoms: _3066  and  _3067
REMARK  899  A    between atoms: _3067  and  _3068
REMARK  900  A    between atoms: _3082  and  _3083
REMARK  901  A    between atoms: _3083  and  _3084
REMARK  902  A    between atoms: _3083  and  _3086
REMARK  903  A    between atoms: _3086  and  _3087
REMARK  904  A    between atoms: _3099  and  _3100
REMARK  905  A    between atoms: _3100  and  _3101
REMARK  906  A    between atoms: _3100  and  _3103
REMARK  907  A    between atoms: _3103  and  _3104
REMARK  908  A    between atoms: _3110  and  _3111
REMARK  909  A    between atoms: _3111  and  _3112
REMARK  910  A    between atoms: _3111  and  _3114
REMARK  911  A    between atoms: _3114  and  _3115
REMARK  912  A    between atoms: _3115  and  _3116
REMARK  913  A    between atoms: _3127  and  _3128
REMARK  914  A    between atoms: _3128  and  _3129
REMARK  915  A    between atoms: _3128  and  _3131
REMARK  916  A    between atoms: _3131  and  _3132
REMARK  917  A    between atoms: _3147  and  _3148
REMARK  918  A    between atoms: _3148  and  _3149
REMARK  919  A    between atoms: _3148  and  _3151
REMARK  920  A    between atoms: _3151  and  _3152
REMARK  921  A    between atoms: _3151  and  _3153
REMARK  922  A    between atoms: _3152  and  _3154
REMARK  923  A    between atoms: _3166  and  _3167
REMARK  924  A    between atoms: _3167  and  _3168
REMARK  925  A    between atoms: _3173  and  _3174
REMARK  926  A    between atoms: _3174  and  _3175
REMARK  927  A    between atoms: _3174  and  _3177
REMARK  928  A    between atoms: _3177  and  _3178
REMARK  929  A    between atoms: _3183  and  _3184
REMARK  930  A    between atoms: _3195  and  _3196
REMARK  931  A    between atoms: _3208  and  _3209
REMARK  932  A    between atoms: _3209  and  _3210
REMARK  933  A    between atoms: _3209  and  _3212
REMARK  934  A    between atoms: _3212  and  _3213
REMARK  935  A    between atoms: _3212  and  _3214
REMARK  936  A    between atoms: _3213  and  _3215
REMARK  937  A    between atoms: _3227  and  _3228
REMARK  938  A    between atoms: _3228  and  _3229
REMARK  939  A    between atoms: _3228  and  _3231
REMARK  940  A    between atoms: _3231  and  _3232
REMARK  941  A    between atoms: _3231  and  _3233
REMARK  942  A    between atoms: _3241  and  _3242
REMARK  943  A    between atoms: _3242  and  _3243
REMARK  944  A    between atoms: _3242  and  _3245
REMARK  945  A    between atoms: _3245  and  _3246
REMARK  946  A    between atoms: _3246  and  _3247
REMARK  947  A    between atoms: _3246  and  _3248
REMARK  948  A    between atoms: _3260  and  _3261
REMARK  949  A    between atoms: _3261  and  _3262
REMARK  950  A    between atoms: _3261  and  _3264
REMARK  951  A    between atoms: _3264  and  _3265
REMARK  952  A    between atoms: _3280  and  _3281
REMARK  953  A    between atoms: _3281  and  _3282
REMARK  954  A    between atoms: _3281  and  _3284
REMARK  955  A    between atoms: _3284  and  _3285
REMARK  956  A    between atoms: _3284  and  _3286
REMARK  957  A    between atoms: _3296  and  _3297
REMARK  958  A    between atoms: _3297  and  _3298
REMARK  959  A    between atoms: _3297  and  _3300
REMARK  960  A    between atoms: _3300  and  _3301
REMARK  961  A    between atoms: _3301  and  _3302
REMARK                            x       y       z     vdW  Elec       q    Type
REMARK                         _______ _______ _______ _____ _____    ______ ____
ROOT
ATOM      1  C   UNL     1      12.792  33.522  17.887  0.00  0.00    +0.000 C 
ENDROOT
TORSDOF 0
REMARK  Name = /Users/mlugowska/PhD/ML_residence_time_prediction/protein_files/5J20_protein.pdb
REMARK  961 active torsions:
REMARK  status: ('A' for Active; 'I' for Inactive)
REMARK    1  A    between atoms: _2  and  _3
REMARK    2  A    between atoms: _2  and  _5
REMARK    3  A    between atoms: _10  and  _11
REMARK    4  A    between atoms: _11  and  _12
REMARK    5  A    between atoms: _11  and  _14
REMARK    6  A    between atoms: _14  and  _15
REMARK    7  A    between atoms: _14  and  _16
REMARK    8  A    between atoms: _26  and  _27
REMARK    9  A    between atoms: _27  and  _28
REMARK   10  A    between atoms: _27  and  _30
REMARK   11  A    between atoms: _30  and  _31
REMARK   12  A    between atoms: _31  and  _32
REMARK   13  A    between atoms: _41  and  _42
REMARK   14  A    between atoms: _42  and  _43
REMARK   15  A    between atoms: _42  and  _45
REMARK   16  A    between atoms: _45  and  _46
REMARK   17  A    between atoms: _45  and  _47
REMARK   18  A    between atoms: _55  and  _56
REMARK   19  A    between atoms: _56  and  _57
REMARK   20  A    between atoms: _56  and  _59
REMARK   21  A    between atoms: _59  and  _60
REMARK   22  A    between atoms: _75  and  _76
REMARK   23  A    between atoms: _76  and  _77
REMARK   24  A    between atoms: _76  and  _79
REMARK   25  A    between atoms: _85  and  _86
REMARK   26  A    between atoms: _86  and  _87
REMARK   27  A    between atoms: _86  and  _89
REMARK   28  A    between atoms: _89  and  _90
REMARK   29  A    between atoms: _105  and  _106
REMARK   30  A    between atoms: _106  and  _107
REMARK   31  A    between atoms: _106  and  _109
REMARK   32  A    between atoms: _109  and  _110
REMARK   33  A    between atoms: _110  and  _111
REMARK   34  A    between atoms: _122  and  _123
REMARK   35  A    between atoms: _123  and  _124
REMARK   36  A    between atoms: _123  and  _126
REMARK   37  A    between atoms: _132  and  _133
REMARK   38  A    between atoms: _133  and  _134
REMARK   39  A    between atoms: _133  and  _136
REMARK   40  A    between atoms: _136  and  _137
REMARK   41  A    between atoms: _137  and  _138
REMARK   42  A    between atoms: _147  and  _148
REMARK   43  A    between atoms: _148  and  _149
REMARK   44  A    between atoms: _148  and  _151
REMARK   45  A    between atoms: _151  and  _152
REMARK   46  A    between atoms: _151  and  _153
REMARK   47  A    between atoms: _152  and  _154
REMARK   48  A    between atoms: _166  and  _167
REMARK   49  A    between atoms: _167  and  _168
REMARK   50  A    between atoms: _167  and  _170
REMARK   51  A    between atoms: _176  and  _177
REMARK   52  A    between atoms: _177  and  _178
REMARK   53  A    between atoms: _177  and  _180
REMARK   54  A    between atoms: _180  and  _181
REMARK   55  A    between atoms: _181  and  _182
REMARK   56  A    between atoms: _193  and  _194
REMARK   57  A    between atoms: _194  and  _195
REMARK   58  A    between atoms: _194  and  _197
REMARK   59  A    between atoms: _197  and  _198
REMARK   60  A    between atoms: _198  and  _199
REMARK   61  A    between atoms: _198  and  _200
REMARK   62  A    between atoms: _212  and  _213
REMARK   63  A    between atoms: _213  and  _214
REMARK   64  A    between atoms: _213  and  _216
REMARK   65  A    between atoms: _216  and  _217
REMARK   66  A    between atoms: _217  and  _218
REMARK   67  A    between atoms: _218  and  _219
REMARK   68  A    between atoms: _229  and  _230
REMARK   69  A    between atoms: _230  and  _231
REMARK   70  A    between atoms: _230  and  _233
REMARK   71  A    between atoms: _233  and  _234
REMARK   72  A    between atoms: _240  and  _241
REMARK   73  A    between atoms: _241  and  _242
REMARK   74  A    between atoms: _241  and  _244
REMARK   75  A    between atoms: _244  and  _245
REMARK   76  A    between atoms: _245  and  _246
REMARK   77  A    between atoms: _245  and  _247
REMARK   78  A    between atoms: _259  and  _260
REMARK   79  A    between atoms: _260  and  _261
REMARK   80  A    between atoms: _260  and  _263
REMARK   81  A    between atoms: _263  and  _264
REMARK   82  A    between atoms: _263  and  _265
REMARK   83  A    between atoms: _264  and  _266
REMARK   84  A    between atoms: _278  and  _279
REMARK   85  A    between atoms: _279  and  _280
REMARK   86  A    between atoms: _279  and  _282
REMARK   87  A    between atoms: _282  and  _283
REMARK   88  A    between atoms: _282  and  _284
REMARK   89  A    between atoms: _283  and  _285
REMARK   90  A    between atoms: _297  and  _298
REMARK   91  A    between atoms: _298  and  _299
REMARK   92  A    between atoms: _298  and  _301
REMARK   93  A    between atoms: _301  and  _302
REMARK   94  A    between atoms: _311  and  _312
REMARK   95  A    between atoms: _312  and  _313
REMARK   96  A    between atoms: _312  and  _315
REMARK   97  A    between atoms: _315  and  _316
REMARK   98  A    between atoms: _315  and  _317
REMARK   99  A    between atoms: _325  and  _326
REMARK  100  A    between atoms: _326  and  _327
REMARK  101  A    between atoms: _326  and  _329
REMARK  102  A    between atoms: _329  and  _330
REMARK  103  A    between atoms: _345  and  _346
REMARK  104  A    between atoms: _346  and  _347
REMARK  105  A    between atoms: _346  and  _349
REMARK  106  A    between atoms: _349  and  _350
REMARK  107  A    between atoms: _355  and  _356
REMARK  108  A    between atoms: _366  and  _367
REMARK  109  A    between atoms: _367  and  _368
REMARK  110  A    between atoms: _367  and  _370
REMARK  111  A    between atoms: _370  and  _371
REMARK  112  A    between atoms: _377  and  _378
REMARK  113  A    between atoms: _378  and  _379
REMARK  114  A    between atoms: _378  and  _381
REMARK  115  A    between atoms: _381  and  _382
REMARK  116  A    between atoms: _391  and  _392
REMARK  117  A    between atoms: _392  and  _393
REMARK  118  A    between atoms: _392  and  _395
REMARK  119  A    between atoms: _395  and  _396
REMARK  120  A    between atoms: _396  and  _397
REMARK  121  A    between atoms: _397  and  _398
REMARK  122  A    between atoms: _398  and  _399
REMARK  123  A    between atoms: _413  and  _414
REMARK  124  A    between atoms: _414  and  _415
REMARK  125  A    between atoms: _414  and  _417
REMARK  126  A    between atoms: _417  and  _418
REMARK  127  A    between atoms: _418  and  _419
REMARK  128  A    between atoms: _428  and  _429
REMARK  129  A    between atoms: _429  and  _430
REMARK  130  A    between atoms: _429  and  _432
REMARK  131  A    between atoms: _432  and  _433
REMARK  132  A    between atoms: _432  and  _434
REMARK  133  A    between atoms: _433  and  _435
REMARK  134  A    between atoms: _447  and  _448
REMARK  135  A    between atoms: _448  and  _449
REMARK  136  A    between atoms: _448  and  _451
REMARK  137  A    between atoms: _451  and  _452
REMARK  138  A    between atoms: _467  and  _468
REMARK  139  A    between atoms: _468  and  _469
REMARK  140  A    between atoms: _468  and  _471
REMARK  141  A    between atoms: _471  and  _472
REMARK  142  A    between atoms: _472  and  _473
REMARK  143  A    between atoms: _472  and  _474
REMARK  144  A    between atoms: _486  and  _487
REMARK  145  A    between atoms: _487  and  _488
REMARK  146  A    between atoms: _487  and  _490
REMARK  147  A    between atoms: _490  and  _491
REMARK  148  A    between atoms: _491  and  _492
REMARK  149  A    between atoms: _492  and  _493
REMARK  150  A    between atoms: _510  and  _511
REMARK  151  A    between atoms: _511  and  _512
REMARK  152  A    between atoms: _511  and  _514
REMARK  153  A    between atoms: _514  and  _515
REMARK  154  A    between atoms: _515  and  _516
REMARK  155  A    between atoms: _525  and  _526
REMARK  156  A    between atoms: _526  and  _527
REMARK  157  A    between atoms: _526  and  _529
REMARK  158  A    between atoms: _529  and  _530
REMARK  159  A    between atoms: _530  and  _531
REMARK  160  A    between atoms: _530  and  _532
REMARK  161  A    between atoms: _544  and  _545
REMARK  162  A    between atoms: _545  and  _546
REMARK  163  A    between atoms: _545  and  _548
REMARK  164  A    between atoms: _548  and  _549
REMARK  165  A    between atoms: _548  and  _550
REMARK  166  A    between atoms: _549  and  _551
REMARK  167  A    between atoms: _563  and  _564
REMARK  168  A    between atoms: _564  and  _565
REMARK  169  A    between atoms: _564  and  _567
REMARK  170  A    between atoms: _567  and  _568
REMARK  171  A    between atoms: _574  and  _575
REMARK  172  A    between atoms: _575  and  _576
REMARK  173  A    between atoms: _575  and  _578
REMARK  174  A    between atoms: _578  and  _579
REMARK  175  A    between atoms: _588  and  _589
REMARK  176  A    between atoms: _589  and  _590
REMARK  177  A    between atoms: _589  and  _592
REMARK  178  A    between atoms: _592  and  _593
REMARK  179  A    between atoms: _599  and  _600
REMARK  180  A    between atoms: _600  and  _601
REMARK  181  A    between atoms: _600  and  _603
REMARK  182  A    between atoms: _603  and  _604
REMARK  183  A    between atoms: _610  and  _611
REMARK  184  A    between atoms: _611  and  _612
REMARK  185  A    between atoms: _611  and  _614
REMARK  186  A    between atoms: _614  and  _615
REMARK  187  A    between atoms: _622  and  _623
REMARK  188  A    between atoms: _623  and  _624
REMARK  189  A    between atoms: _623  and  _626
REMARK  190  A    between atoms: _632  and  _633
REMARK  191  A    between atoms: _633  and  _634
REMARK  192  A    between atoms: _633  and  _636
REMARK  193  A    between atoms: _636  and  _637
REMARK  194  A    between atoms: _637  and  _638
REMARK  195  A    between atoms: _637  and  _639
REMARK  196  A    between atoms: _651  and  _652
REMARK  197  A    between atoms: _652  and  _653
REMARK  198  A    between atoms: _652  and  _655
REMARK  199  A    between atoms: _655  and  _656
REMARK  200  A    between atoms: _663  and  _664
REMARK  201  A    between atoms: _664  and  _665
REMARK  202  A    between atoms: _664  and  _667
REMARK  203  A    between atoms: _667  and  _668
REMARK  204  A    between atoms: _668  and  _669
REMARK  205  A    between atoms: _669  and  _670
REMARK  206  A    between atoms: _670  and  _671
REMARK  207  A    between atoms: _685  and  _686
REMARK  208  A    between atoms: _686  and  _687
REMARK  209  A    between atoms: _686  and  _689
REMARK  210  A    between atoms: _689  and  _690
REMARK  211  A    between atoms: _689  and  _691
REMARK  212  A    between atoms: _690  and  _692
REMARK  213  A    between atoms: _704  and  _705
REMARK  214  A    between atoms: _705  and  _706
REMARK  215  A    between atoms: _705  and  _708
REMARK  216  A    between atoms: _708  and  _709
REMARK  217  A    between atoms: _709  and  _710
REMARK  218  A    between atoms: _710  and  _711
REMARK  219  A    between atoms: _728  and  _729
REMARK  220  A    between atoms: _729  and  _730
REMARK  221  A    between atoms: _729  and  _732
REMARK  222  A    between atoms: _732  and  _733
REMARK  223  A    between atoms: _738  and  _739
REMARK  224  A    between atoms: _749  and  _750
REMARK  225  A    between atoms: _750  and  _751
REMARK  226  A    between atoms: _750  and  _753
REMARK  227  A    between atoms: _753  and  _754
REMARK  228  A    between atoms: _754  and  _755
REMARK  229  A    between atoms: _764  and  _765
REMARK  230  A    between atoms: _765  and  _766
REMARK  231  A    between atoms: _765  and  _768
REMARK  232  A    between atoms: _772  and  _773
REMARK  233  A    between atoms: _773  and  _774
REMARK  234  A    between atoms: _773  and  _776
REMARK  235  A    between atoms: _776  and  _777
REMARK  236  A    between atoms: _777  and  _778
REMARK  237  A    between atoms: _777  and  _779
REMARK  238  A    between atoms: _791  and  _792
REMARK  239  A    between atoms: _792  and  _793
REMARK  240  A    between atoms: _792  and  _795
REMARK  241  A    between atoms: _795  and  _796
REMARK  242  A    between atoms: _795  and  _797
REMARK  243  A    between atoms: _805  and  _806
REMARK  244  A    between atoms: _806  and  _807
REMARK  245  A    between atoms: _806  and  _809
REMARK  246  A    between atoms: _809  and  _810
REMARK  247  A    between atoms: _818  and  _819
REMARK  248  A    between atoms: _831  and  _832
REMARK  249  A    between atoms: _832  and  _833
REMARK  250  A    between atoms: _832  and  _835
REMARK  251  A    between atoms: _835  and  _836
REMARK  252  A    between atoms: _842  and  _843
REMARK  253  A    between atoms: _843  and  _844
REMARK  254  A    between atoms: _843  and  _846
REMARK  255  A    between atoms: _846  and  _847
REMARK  256  A    between atoms: _847  and  _848
REMARK  257  A    between atoms: _848  and  _849
REMARK  258  A    between atoms: _849  and  _850
REMARK  259  A    between atoms: _864  and  _865
REMARK  260  A    between atoms: _865  and  _866
REMARK  261  A    between atoms: _865  and  _868
REMARK  262  A    between atoms: _868  and  _869
REMARK  263  A    between atoms: _869  and  _870
REMARK  264  A    between atoms: _869  and  _871
REMARK  265  A    between atoms: _883  and  _884
REMARK  266  A    between atoms: _884  and  _885
REMARK  267  A    between atoms: _884  and  _887
REMARK  268  A    between atoms: _887  and  _888
REMARK  269  A    between atoms: _895  and  _896
REMARK  270  A    between atoms: _896  and  _897
REMARK  271  A    between atoms: _896  and  _899
REMARK  272  A    between atoms: _899  and  _900
REMARK  273  A    between atoms: _906  and  _907
REMARK  274  A    between atoms: _907  and  _908
REMARK  275  A    between atoms: _913  and  _914
REMARK  276  A    between atoms: _914  and  _915
REMARK  277  A    between atoms: _914  and  _917
REMARK  278  A    between atoms: _917  and  _918
REMARK  279  A    between atoms: _918  and  _919
REMARK  280  A    between atoms: _919  and  _920
REMARK  281  A    between atoms: _920  and  _921
REMARK  282  A    between atoms: _935  and  _936
REMARK  283  A    between atoms: _936  and  _937
REMARK  284  A    between atoms: _936  and  _939
REMARK  285  A    between atoms: _939  and  _940
REMARK  286  A    between atoms: _940  and  _941
REMARK  287  A    between atoms: _950  and  _951
REMARK  288  A    between atoms: _951  and  _952
REMARK  289  A    between atoms: _951  and  _954
REMARK  290  A    between atoms: _954  and  _955
REMARK  291  A    between atoms: _955  and  _956
REMARK  292  A    between atoms: _955  and  _957
REMARK  293  A    between atoms: _969  and  _970
REMARK  294  A    between atoms: _970  and  _971
REMARK  295  A    between atoms: _970  and  _973
REMARK  296  A    between atoms: _973  and  _974
REMARK  297  A    between atoms: _986  and  _987
REMARK  298  A    between atoms: _987  and  _988
REMARK  299  A    between atoms: _987  and  _990
REMARK  300  A    between atoms: _990  and  _991
REMARK  301  A    between atoms: _990  and  _992
REMARK  302  A    between atoms: _991  and  _993
REMARK  303  A    between atoms: _1005  and  _1006
REMARK  304  A    between atoms: _1006  and  _1007
REMARK  305  A    between atoms: _1006  and  _1009
REMARK  306  A    between atoms: _1009  and  _1010
REMARK  307  A    between atoms: _1019  and  _1020
REMARK  308  A    between atoms: _1020  and  _1021
REMARK  309  A    between atoms: _1020  and  _1023
REMARK  310  A    between atoms: _1023  and  _1024
REMARK  311  A    between atoms: _1024  and  _1025
REMARK  312  A    between atoms: _1024  and  _1026
REMARK  313  A    between atoms: _1038  and  _1039
REMARK  314  A    between atoms: _1039  and  _1040
REMARK  315  A    between atoms: _1039  and  _1042
REMARK  316  A    between atoms: _1042  and  _1043
REMARK  317  A    between atoms: _1042  and  _1044
REMARK  318  A    between atoms: _1043  and  _1045
REMARK  319  A    between atoms: _1058  and  _1059
REMARK  320  A    between atoms: _1071  and  _1072
REMARK  321  A    between atoms: _1072  and  _1073
REMARK  322  A    between atoms: _1072  and  _1075
REMARK  323  A    between atoms: _1075  and  _1076
REMARK  324  A    between atoms: _1085  and  _1086
REMARK  325  A    between atoms: _1086  and  _1087
REMARK  326  A    between atoms: _1086  and  _1089
REMARK  327  A    between atoms: _1089  and  _1090
REMARK  328  A    between atoms: _1090  and  _1091
REMARK  329  A    between atoms: _1091  and  _1092
REMARK  330  A    between atoms: _1092  and  _1093
REMARK  331  A    between atoms: _1107  and  _1108
REMARK  332  A    between atoms: _1108  and  _1109
REMARK  333  A    between atoms: _1108  and  _1111
REMARK  334  A    between atoms: _1111  and  _1112
REMARK  335  A    between atoms: _1112  and  _1113
REMARK  336  A    between atoms: _1124  and  _1125
REMARK  337  A    between atoms: _1125  and  _1126
REMARK  338  A    between atoms: _1125  and  _1128
REMARK  339  A    between atoms: _1128  and  _1129
REMARK  340  A    between atoms: _1136  and  _1137
REMARK  341  A    between atoms: _1137  and  _1138
REMARK  342  A    between atoms: _1137  and  _1140
REMARK  343  A    between atoms: _1140  and  _1141
REMARK  344  A    between atoms: _1141  and  _1142
REMARK  345  A    between atoms: _1142  and  _1143
REMARK  346  A    between atoms: _1160  and  _1161
REMARK  347  A    between atoms: _1161  and  _1162
REMARK  348  A    between atoms: _1161  and  _1164
REMARK  349  A    between atoms: _1164  and  _1165
REMARK  350  A    between atoms: _1164  and  _1166
REMARK  351  A    between atoms: _1174  and  _1175
REMARK  352  A    between atoms: _1175  and  _1176
REMARK  353  A    between atoms: _1175  and  _1178
REMARK  354  A    between atoms: _1178  and  _1179
REMARK  355  A    between atoms: _1179  and  _1180
REMARK  356  A    between atoms: _1179  and  _1181
REMARK  357  A    between atoms: _1193  and  _1194
REMARK  358  A    between atoms: _1194  and  _1195
REMARK  359  A    between atoms: _1194  and  _1197
REMARK  360  A    between atoms: _1197  and  _1198
REMARK  361  A    between atoms: _1197  and  _1199
REMARK  362  A    between atoms: _1207  and  _1208
REMARK  363  A    between atoms: _1208  and  _1209
REMARK  364  A    between atoms: _1208  and  _1211
REMARK  365  A    between atoms: _1211  and  _1212
REMARK  366  A    between atoms: _1211  and  _1213
REMARK  367  A    between atoms: _1212  and  _1214
REMARK  368  A    between atoms: _1226  and  _1227
REMARK  369  A    between atoms: _1227  and  _1228
REMARK  370  A    between atoms: _1227  and  _1230
REMARK  371  A    between atoms: _1230  and  _1231
REMARK  372  A    between atoms: _1230  and  _1232
REMARK  373  A    between atoms: _1242  and  _1243
REMARK  374  A    between atoms: _1243  and  _1244
REMARK  375  A    between atoms: _1243  and  _1246
REMARK  376  A    between atoms: _1246  and  _1247
REMARK  377  A    between atoms: _1254  and  _1255
REMARK  378  A    between atoms: _1255  and  _1256
REMARK  379  A    between atoms: _1255  and  _1258
REMARK  380  A    between atoms: _1258  and  _1259
REMARK  381  A    between atoms: _1258  and  _1260
REMARK  382  A    between atoms: _1268  and  _1269
REMARK  383  A    between atoms: _1269  and  _1270
REMARK  384  A    between atoms: _1275  and  _1276
REMARK  385  A    between atoms: _1276  and  _1277
REMARK  386  A    between atoms: _1276  and  _1279
REMARK  387  A    between atoms: _1279  and  _1280
REMARK  388  A    between atoms: _1279  and  _1281
REMARK  389  A    between atoms: _1280  and  _1282
REMARK  390  A    between atoms: _1294  and  _1295
REMARK  391  A    between atoms: _1295  and  _1296
REMARK  392  A    between atoms: _1301  and  _1302
REMARK  393  A    between atoms: _1302  and  _1303
REMARK  394  A    between atoms: _1302  and  _1305
REMARK  395  A    between atoms: _1305  and  _1306
REMARK  396  A    between atoms: _1306  and  _1307
REMARK  397  A    between atoms: _1307  and  _1308
REMARK  398  A    between atoms: _1318  and  _1319
REMARK  399  A    between atoms: _1319  and  _1320
REMARK  400  A    between atoms: _1319  and  _1322
REMARK  401  A    between atoms: _1322  and  _1323
REMARK  402  A    between atoms: _1322  and  _1324
REMARK  403  A    between atoms: _1332  and  _1333
REMARK  404  A    between atoms: _1333  and  _1334
REMARK  405  A    between atoms: _1333  and  _1336
REMARK  406  A    between atoms: _1336  and  _1337
REMARK  407  A    between atoms: _1337  and  _1338
REMARK  408  A    between atoms: _1338  and  _1339
REMARK  409  A    between atoms: _1339  and  _1340
REMARK  410  A    between atoms: _1354  and  _1355
REMARK  411  A    between atoms: _1355  and  _1356
REMARK  412  A    between atoms: _1355  and  _1358
REMARK  413  A    between atoms: _1364  and  _1365
REMARK  414  A    between atoms: _1365  and  _1366
REMARK  415  A    between atoms: _1365  and  _1368
REMARK  416  A    between atoms: _1368  and  _1369
REMARK  417  A    between atoms: _1376  and  _1377
REMARK  418  A    between atoms: _1377  and  _1378
REMARK  419  A    between atoms: _1377  and  _1380
REMARK  420  A    between atoms: _1380  and  _1381
REMARK  421  A    between atoms: _1381  and  _1382
REMARK  422  A    between atoms: _1381  and  _1383
REMARK  423  A    between atoms: _1395  and  _1396
REMARK  424  A    between atoms: _1396  and  _1399
REMARK  425  A    between atoms: _1399  and  _1400
REMARK  426  A    between atoms: _1399  and  _1401
REMARK  427  A    between atoms: _1400  and  _1402
REMARK  428  A    between atoms: _1422  and  _1425
REMARK  429  A    between atoms: _1424  and  _1428
REMARK  430  A    between atoms: _1425  and  _1427
REMARK  431  A    between atoms: _1443  and  _1444
REMARK  432  A    between atoms: _1443  and  _1446
REMARK  433  A    between atoms: _1446  and  _1447
REMARK  434  A    between atoms: _1457  and  _1458
REMARK  435  A    between atoms: _1458  and  _1459
REMARK  436  A    between atoms: _1458  and  _1461
REMARK  437  A    between atoms: _1461  and  _1462
REMARK  438  A    between atoms: _1462  and  _1463
REMARK  439  A    between atoms: _1462  and  _1464
REMARK  440  A    between atoms: _1476  and  _1477
REMARK  441  A    between atoms: _1477  and  _1478
REMARK  442  A    between atoms: _1483  and  _1484
REMARK  443  A    between atoms: _1484  and  _1485
REMARK  444  A    between atoms: _1484  and  _1487
REMARK  445  A    between atoms: _1487  and  _1488
REMARK  446  A    between atoms: _1487  and  _1489
REMARK  447  A    between atoms: _1497  and  _1498
REMARK  448  A    between atoms: _1498  and  _1499
REMARK  449  A    between atoms: _1498  and  _1501
REMARK  450  A    between atoms: _1501  and  _1502
REMARK  451  A    between atoms: _1501  and  _1503
REMARK  452  A    between atoms: _1502  and  _1504
REMARK  453  A    between atoms: _1516  and  _1517
REMARK  454  A    between atoms: _1517  and  _1518
REMARK  455  A    between atoms: _1517  and  _1520
REMARK  456  A    between atoms: _1526  and  _1527
REMARK  457  A    between atoms: _1527  and  _1528
REMARK  458  A    between atoms: _1527  and  _1530
REMARK  459  A    between atoms: _1530  and  _1531
REMARK  460  A    between atoms: _1531  and  _1532
REMARK  461  A    between atoms: _1532  and  _1533
REMARK  462  A    between atoms: _1533  and  _1534
REMARK  463  A    between atoms: _1548  and  _1549
REMARK  464  A    between atoms: _1549  and  _1550
REMARK  465  A    between atoms: _1549  and  _1552
REMARK  466  A    between atoms: _1552  and  _1553
REMARK  467  A    between atoms: _1559  and  _1560
REMARK  468  A    between atoms: _1560  and  _1561
REMARK  469  A    between atoms: _1566  and  _1567
REMARK  470  A    between atoms: _1567  and  _1568
REMARK  471  A    between atoms: _1567  and  _1570
REMARK  472  A    between atoms: _1570  and  _1571
REMARK  473  A    between atoms: _1570  and  _1572
REMARK  474  A    between atoms: _1580  and  _1581
REMARK  475  A    between atoms: _1581  and  _1582
REMARK  476  A    between atoms: _1581  and  _1584
REMARK  477  A    between atoms: _1584  and  _1585
REMARK  478  A    between atoms: _1585  and  _1586
REMARK  479  A    between atoms: _1586  and  _1587
REMARK  480  A    between atoms: _1587  and  _1588
REMARK  481  A    between atoms: _1602  and  _1603
REMARK  482  A    between atoms: _1603  and  _1604
REMARK  483  A    between atoms: _1603  and  _1606
REMARK  484  A    between atoms: _1612  and  _1613
REMARK  485  A    between atoms: _1613  and  _1614
REMARK  486  A    between atoms: _1613  and  _1616
REMARK  487  A    between atoms: _1616  and  _1617
REMARK  488  A    between atoms: _1632  and  _1633
REMARK  489  A    between atoms: _1633  and  _1634
REMARK  490  A    between atoms: _1633  and  _1636
REMARK  491  A    between atoms: _1636  and  _1637
REMARK  492  A    between atoms: _1637  and  _1638
REMARK  493  A    between atoms: _1638  and  _1639
REMARK  494  A    between atoms: _1649  and  _1650
REMARK  495  A    between atoms: _1650  and  _1651
REMARK  496  A    between atoms: _1650  and  _1653
REMARK  497  A    between atoms: _1653  and  _1654
REMARK  498  A    between atoms: _1654  and  _1655
REMARK  499  A    between atoms: _1664  and  _1665
REMARK  500  A    between atoms: _1665  and  _1666
REMARK  501  A    between atoms: _1665  and  _1668
REMARK  502  A    between atoms: _1674  and  _1675
REMARK  503  A    between atoms: _1675  and  _1676
REMARK  504  A    between atoms: _1675  and  _1678
REMARK  505  A    between atoms: _1678  and  _1679
REMARK  506  A    between atoms: _1679  and  _1680
REMARK  507  A    between atoms: _1679  and  _1681
REMARK  508  A    between atoms: _1693  and  _1694
REMARK  509  A    between atoms: _1694  and  _1695
REMARK  510  A    between atoms: _1694  and  _1697
REMARK  511  A    between atoms: _1697  and  _1698
REMARK  512  A    between atoms: _1698  and  _1699
REMARK  513  A    between atoms: _1710  and  _1711
REMARK  514  A    between atoms: _1711  and  _1712
REMARK  515  A    between atoms: _1711  and  _1714
REMARK  516  A    between atoms: _1720  and  _1721
REMARK  517  A    between atoms: _1721  and  _1722
REMARK  518  A    between atoms: _1727  and  _1728
REMARK  519  A    between atoms: _1728  and  _1729
REMARK  520  A    between atoms: _1728  and  _1731
REMARK  521  A    between atoms: _1737  and  _1738
REMARK  522  A    between atoms: _1738  and  _1739
REMARK  523  A    between atoms: _1738  and  _1741
REMARK  524  A    between atoms: _1741  and  _1742
REMARK  525  A    between atoms: _1749  and  _1750
REMARK  526  A    between atoms: _1750  and  _1751
REMARK  527  A    between atoms: _1750  and  _1753
REMARK  528  A    between atoms: _1753  and  _1754
REMARK  529  A    between atoms: _1753  and  _1755
REMARK  530  A    between atoms: _1754  and  _1756
REMARK  531  A    between atoms: _1768  and  _1769
REMARK  532  A    between atoms: _1769  and  _1772
REMARK  533  A    between atoms: _1772  and  _1773
REMARK  534  A    between atoms: _1791  and  _1793
REMARK  535  A    between atoms: _1792  and  _1794
REMARK  536  A    between atoms: _1814  and  _1815
REMARK  537  A    between atoms: _1814  and  _1817
REMARK  538  A    between atoms: _1817  and  _1818
REMARK  539  A    between atoms: _1817  and  _1819
REMARK  540  A    between atoms: _1818  and  _1820
REMARK  541  A    between atoms: _1833  and  _1834
REMARK  542  A    between atoms: _1834  and  _1835
REMARK  543  A    between atoms: _1840  and  _1841
REMARK  544  A    between atoms: _1841  and  _1842
REMARK  545  A    between atoms: _1841  and  _1844
REMARK  546  A    between atoms: _1844  and  _1845
REMARK  547  A    between atoms: _1845  and  _1846
REMARK  548  A    between atoms: _1857  and  _1858
REMARK  549  A    between atoms: _1858  and  _1859
REMARK  550  A    between atoms: _1858  and  _1861
REMARK  551  A    between atoms: _1861  and  _1862
REMARK  552  A    between atoms: _1877  and  _1878
REMARK  553  A    between atoms: _1878  and  _1879
REMARK  554  A    between atoms: _1884  and  _1885
REMARK  555  A    between atoms: _1885  and  _1886
REMARK  556  A    between atoms: _1885  and  _1888
REMARK  557  A    between atoms: _1888  and  _1889
REMARK  558  A    between atoms: _1888  and  _1890
REMARK  559  A    between atoms: _1900  and  _1901
REMARK  560  A    between atoms: _1901  and  _1902
REMARK  561  A    between atoms: _1907  and  _1908
REMARK  562  A    between atoms: _1908  and  _1909
REMARK  563  A    between atoms: _1908  and  _1911
REMARK  564  A    between atoms: _1911  and  _1912
REMARK  565  A    between atoms: _1927  and  _1928
REMARK  566  A    between atoms: _1928  and  _1929
REMARK  567  A    between atoms: _1928  and  _1931
REMARK  568  A    between atoms: _1931  and  _1932
REMARK  569  A    between atoms: _1937  and  _1938
REMARK  570  A    between atoms: _1948  and  _1949
REMARK  571  A    between atoms: _1949  and  _1950
REMARK  572  A    between atoms: _1949  and  _1952
REMARK  573  A    between atoms: _1952  and  _1953
REMARK  574  A    between atoms: _1959  and  _1960
REMARK  575  A    between atoms: _1960  and  _1961
REMARK  576  A    between atoms: _1960  and  _1963
REMARK  577  A    between atoms: _1969  and  _1970
REMARK  578  A    between atoms: _1970  and  _1971
REMARK  579  A    between atoms: _1970  and  _1973
REMARK  580  A    between atoms: _1973  and  _1974
REMARK  581  A    between atoms: _1979  and  _1980
REMARK  582  A    between atoms: _1990  and  _1991
REMARK  583  A    between atoms: _1991  and  _1992
REMARK  584  A    between atoms: _1991  and  _1994
REMARK  585  A    between atoms: _1994  and  _1995
REMARK  586  A    between atoms: _1995  and  _1996
REMARK  587  A    between atoms: _1995  and  _1997
REMARK  588  A    between atoms: _2009  and  _2010
REMARK  589  A    between atoms: _2010  and  _2011
REMARK  590  A    between atoms: _2010  and  _2013
REMARK  591  A    between atoms: _2013  and  _2014
REMARK  592  A    between atoms: _2013  and  _2015
REMARK  593  A    between atoms: _2025  and  _2026
REMARK  594  A    between atoms: _2026  and  _2027
REMARK  595  A    between atoms: _2026  and  _2029
REMARK  596  A    between atoms: _2035  and  _2036
REMARK  597  A    between atoms: _2036  and  _2037
REMARK  598  A    between atoms: _2036  and  _2039
REMARK  599  A    between atoms: _2039  and  _2040
REMARK  600  A    between atoms: _2040  and  _2041
REMARK  601  A    between atoms: _2050  and  _2051
REMARK  602  A    between atoms: _2051  and  _2052
REMARK  603  A    between atoms: _2051  and  _2054
REMARK  604  A    between atoms: _2054  and  _2055
REMARK  605  A    between atoms: _2055  and  _2056
REMARK  606  A    between atoms: _2056  and  _2057
REMARK  607  A    between atoms: _2057  and  _2058
REMARK  608  A    between atoms: _2072  and  _2073
REMARK  609  A    between atoms: _2073  and  _2074
REMARK  610  A    between atoms: _2073  and  _2076
REMARK  611  A    between atoms: _2076  and  _2077
REMARK  612  A    between atoms: _2076  and  _2078
REMARK  613  A    between atoms: _2088  and  _2089
REMARK  614  A    between atoms: _2089  and  _2090
REMARK  615  A    between atoms: _2089  and  _2092
REMARK  616  A    between atoms: _2092  and  _2093
REMARK  617  A    between atoms: _2092  and  _2094
REMARK  618  A    between atoms: _2102  and  _2103
REMARK  619  A    between atoms: _2103  and  _2104
REMARK  620  A    between atoms: _2103  and  _2106
REMARK  621  A    between atoms: _2106  and  _2107
REMARK  622  A    between atoms: _2106  and  _2108
REMARK  623  A    between atoms: _2118  and  _2119
REMARK  624  A    between atoms: _2119  and  _2120
REMARK  625  A    between atoms: _2119  and  _2122
REMARK  626  A    between atoms: _2122  and  _2123
REMARK  627  A    between atoms: _2122  and  _2124
REMARK  628  A    between atoms: _2123  and  _2125
REMARK  629  A    between atoms: _2137  and  _2138
REMARK  630  A    between atoms: _2138  and  _2139
REMARK  631  A    between atoms: _2138  and  _2141
REMARK  632  A    between atoms: _2141  and  _2142
REMARK  633  A    between atoms: _2141  and  _2143
REMARK  634  A    between atoms: _2151  and  _2152
REMARK  635  A    between atoms: _2152  and  _2153
REMARK  636  A    between atoms: _2152  and  _2155
REMARK  637  A    between atoms: _2155  and  _2156
REMARK  638  A    between atoms: _2156  and  _2157
REMARK  639  A    between atoms: _2157  and  _2158
REMARK  640  A    between atoms: _2158  and  _2159
REMARK  641  A    between atoms: _2173  and  _2174
REMARK  642  A    between atoms: _2174  and  _2175
REMARK  643  A    between atoms: _2174  and  _2177
REMARK  644  A    between atoms: _2177  and  _2178
REMARK  645  A    between atoms: _2190  and  _2191
REMARK  646  A    between atoms: _2191  and  _2192
REMARK  647  A    between atoms: _2191  and  _2194
REMARK  648  A    between atoms: _2194  and  _2195
REMARK  649  A    between atoms: _2204  and  _2205
REMARK  650  A    between atoms: _2205  and  _2206
REMARK  651  A    between atoms: _2205  and  _2208
REMARK  652  A    between atoms: _2208  and  _2209
REMARK  653  A    between atoms: _2216  and  _2217
REMARK  654  A    between atoms: _2217  and  _2218
REMARK  655  A    between atoms: _2217  and  _2220
REMARK  656  A    between atoms: _2220  and  _2221
REMARK  657  A    between atoms: _2228  and  _2229
REMARK  658  A    between atoms: _2229  and  _2230
REMARK  659  A    between atoms: _2229  and  _2232
REMARK  660  A    between atoms: _2232  and  _2233
REMARK  661  A    between atoms: _2233  and  _2234
REMARK  662  A    between atoms: _2243  and  _2244
REMARK  663  A    between atoms: _2244  and  _2245
REMARK  664  A    between atoms: _2244  and  _2247
REMARK  665  A    between atoms: _2247  and  _2248
REMARK  666  A    between atoms: _2248  and  _2249
REMARK  667  A    between atoms: _2260  and  _2261
REMARK  668  A    between atoms: _2261  and  _2262
REMARK  669  A    between atoms: _2261  and  _2264
REMARK  670  A    between atoms: _2264  and  _2265
REMARK  671  A    between atoms: _2270  and  _2271
REMARK  672  A    between atoms: _2281  and  _2282
REMARK  673  A    between atoms: _2282  and  _2283
REMARK  674  A    between atoms: _2282  and  _2285
REMARK  675  A    between atoms: _2291  and  _2292
REMARK  676  A    between atoms: _2292  and  _2293
REMARK  677  A    between atoms: _2292  and  _2295
REMARK  678  A    between atoms: _2295  and  _2296
REMARK  679  A    between atoms: _2315  and  _2316
REMARK  680  A    between atoms: _2316  and  _2317
REMARK  681  A    between atoms: _2316  and  _2319
REMARK  682  A    between atoms: _2319  and  _2320
REMARK  683  A    between atoms: _2320  and  _2321
REMARK  684  A    between atoms: _2330  and  _2331
REMARK  685  A    between atoms: _2331  and  _2332
REMARK  686  A    between atoms: _2331  and  _2334
REMARK  687  A    between atoms: _2334  and  _2335
REMARK  688  A    between atoms: _2341  and  _2342
REMARK  689  A    between atoms: _2342  and  _2343
REMARK  690  A    between atoms: _2342  and  _2345
REMARK  691  A    between atoms: _2345  and  _2346
REMARK  692  A    between atoms: _2352  and  _2353
REMARK  693  A    between atoms: _2353  and  _2354
REMARK  694  A    between atoms: _2353  and  _2356
REMARK  695  A    between atoms: _2362  and  _2363
REMARK  696  A    between atoms: _2363  and  _2364
REMARK  697  A    between atoms: _2369  and  _2370
REMARK  698  A    between atoms: _2370  and  _2371
REMARK  699  A    between atoms: _2376  and  _2377
REMARK  700  A    between atoms: _2377  and  _2378
REMARK  701  A    between atoms: _2377  and  _2380
REMARK  702  A    between atoms: _2380  and  _2381
REMARK  703  A    between atoms: _2387  and  _2388
REMARK  704  A    between atoms: _2388  and  _2389
REMARK  705  A    between atoms: _2388  and  _2391
REMARK  706  A    between atoms: _2391  and  _2392
REMARK  707  A    between atoms: _2407  and  _2408
REMARK  708  A    between atoms: _2408  and  _2409
REMARK  709  A    between atoms: _2408  and  _2411
REMARK  710  A    between atoms: _2411  and  _2412
REMARK  711  A    between atoms: _2411  and  _2413
REMARK  712  A    between atoms: _2421  and  _2422
REMARK  713  A    between atoms: _2422  and  _2423
REMARK  714  A    between atoms: _2422  and  _2425
REMARK  715  A    between atoms: _2425  and  _2426
REMARK  716  A    between atoms: _2425  and  _2427
REMARK  717  A    between atoms: _2437  and  _2438
REMARK  718  A    between atoms: _2438  and  _2439
REMARK  719  A    between atoms: _2438  and  _2441
REMARK  720  A    between atoms: _2441  and  _2442
REMARK  721  A    between atoms: _2442  and  _2443
REMARK  722  A    between atoms: _2443  and  _2444
REMARK  723  A    between atoms: _2461  and  _2462
REMARK  724  A    between atoms: _2462  and  _2463
REMARK  725  A    between atoms: _2462  and  _2465
REMARK  726  A    between atoms: _2465  and  _2466
REMARK  727  A    between atoms: _2465  and  _2467
REMARK  728  A    between atoms: _2475  and  _2476
REMARK  729  A    between atoms: _2476  and  _2477
REMARK  730  A    between atoms: _2476  and  _2479
REMARK  731  A    between atoms: _2479  and  _2480
REMARK  732  A    between atoms: _2487  and  _2488
REMARK  733  A    between atoms: _2488  and  _2489
REMARK  734  A    between atoms: _2488  and  _2491
REMARK  735  A    between atoms: _2491  and  _2492
REMARK  736  A    between atoms: _2491  and  _2493
REMARK  737  A    between atoms: _2501  and  _2502
REMARK  738  A    between atoms: _2502  and  _2503
REMARK  739  A    between atoms: _2508  and  _2509
REMARK  740  A    between atoms: _2509  and  _2510
REMARK  741  A    between atoms: _2509  and  _2512
REMARK  742  A    between atoms: _2512  and  _2513
REMARK  743  A    between atoms: _2513  and  _2514
REMARK  744  A    between atoms: _2524  and  _2525
REMARK  745  A    between atoms: _2537  and  _2538
REMARK  746  A    between atoms: _2538  and  _2539
REMARK  747  A    between atoms: _2538  and  _2541
REMARK  748  A    between atoms: _2541  and  _2542
REMARK  749  A    between atoms: _2542  and  _2543
REMARK  750  A    between atoms: _2543  and  _2544
REMARK  751  A    between atoms: _2554  and  _2555
REMARK  752  A    between atoms: _2555  and  _2556
REMARK  753  A    between atoms: _2561  and  _2562
REMARK  754  A    between atoms: _2562  and  _2563
REMARK  755  A    between atoms: _2562  and  _2565
REMARK  756  A    between atoms: _2565  and  _2566
REMARK  757  A    between atoms: _2566  and  _2567
REMARK  758  A    between atoms: _2567  and  _2568
REMARK  759  A    between atoms: _2585  and  _2586
REMARK  760  A    between atoms: _2586  and  _2587
REMARK  761  A    between atoms: _2592  and  _2593
REMARK  762  A    between atoms: _2593  and  _2594
REMARK  763  A    between atoms: _2593  and  _2596
REMARK  764  A    between atoms: _2596  and  _2597
REMARK  765  A    between atoms: _2596  and  _2598
REMARK  766  A    between atoms: _2606  and  _2607
REMARK  767  A    between atoms: _2607  and  _2608
REMARK  768  A    between atoms: _2607  and  _2610
REMARK  769  A    between atoms: _2610  and  _2611
REMARK  770  A    between atoms: _2611  and  _2612
REMARK  771  A    between atoms: _2612  and  _2613
REMARK  772  A    between atoms: _2613  and  _2614
REMARK  773  A    between atoms: _2628  and  _2629
REMARK  774  A    between atoms: _2629  and  _2630
REMARK  775  A    between atoms: _2629  and  _2632
REMARK  776  A    between atoms: _2632  and  _2633
REMARK  777  A    between atoms: _2632  and  _2634
REMARK  778  A    between atoms: _2644  and  _2645
REMARK  779  A    between atoms: _2645  and  _2646
REMARK  780  A    between atoms: _2645  and  _2648
REMARK  781  A    between atoms: _2648  and  _2649
REMARK  782  A    between atoms: _2648  and  _2650
REMARK  783  A    between atoms: _2649  and  _2651
REMARK  784  A    between atoms: _2663  and  _2664
REMARK  785  A    between atoms: _2664  and  _2665
REMARK  786  A    between atoms: _2664  and  _2667
REMARK  787  A    between atoms: _2667  and  _2668
REMARK  788  A    between atoms: _2668  and  _2669
REMARK  789  A    between atoms: _2668  and  _2670
REMARK  790  A    between atoms: _2682  and  _2683
REMARK  791  A    between atoms: _2683  and  _2684
REMARK  792  A    between atoms: _2683  and  _2686
REMARK  793  A    between atoms: _2686  and  _2687
REMARK  794  A    between atoms: _2699  and  _2700
REMARK  795  A    between atoms: _2700  and  _2701
REMARK  796  A    between atoms: _2700  and  _2703
REMARK  797  A    between atoms: _2703  and  _2704
REMARK  798  A    between atoms: _2704  and  _2705
REMARK  799  A    between atoms: _2704  and  _2706
REMARK  800  A    between atoms: _2718  and  _2719
REMARK  801  A    between atoms: _2719  and  _2720
REMARK  802  A    between atoms: _2719  and  _2722
REMARK  803  A    between atoms: _2722  and  _2723
REMARK  804  A    between atoms: _2723  and  _2724
REMARK  805  A    between atoms: _2724  and  _2725
REMARK  806  A    between atoms: _2725  and  _2726
REMARK  807  A    between atoms: _2740  and  _2741
REMARK  808  A    between atoms: _2741  and  _2742
REMARK  809  A    between atoms: _2741  and  _2744
REMARK  810  A    between atoms: _2744  and  _2745
REMARK  811  A    between atoms: _2745  and  _2746
REMARK  812  A    between atoms: _2755  and  _2756
REMARK  813  A    between atoms: _2756  and  _2757
REMARK  814  A    between atoms: _2756  and  _2759
REMARK  815  A    between atoms: _2759  and  _2760
REMARK  816  A    between atoms: _2767  and  _2768
REMARK  817  A    between atoms: _2768  and  _2769
REMARK  818  A    between atoms: _2768  and  _2771
REMARK  819  A    between atoms: _2771  and  _2772
REMARK  820  A    between atoms: _2772  and  _2773
REMARK  821  A    between atoms: _2784  and  _2785
REMARK  822  A    between atoms: _2785  and  _2786
REMARK  823  A    between atoms: _2785  and  _2788
REMARK  824  A    between atoms: _2788  and  _2789
REMARK  825  A    between atoms: _2788  and  _2790
REMARK  826  A    between atoms: _2798  and  _2799
REMARK  827  A    between atoms: _2799  and  _2800
REMARK  828  A    between atoms: _2799  and  _2802
REMARK  829  A    between atoms: _2802  and  _2803
REMARK  830  A    between atoms: _2803  and  _2804
REMARK  831  A    between atoms: _2813  and  _2814
REMARK  832  A    between atoms: _2814  and  _2815
REMARK  833  A    between atoms: _2814  and  _2817
REMARK  834  A    between atoms: _2817  and  _2818
REMARK  835  A    between atoms: _2823  and  _2824
REMARK  836  A    between atoms: _2834  and  _2835
REMARK  837  A    between atoms: _2835  and  _2838
REMARK  838  A    between atoms: _2838  and  _2839
REMARK  839  A    between atoms: _2839  and  _2840
REMARK  840  A    between atoms: _2839  and  _2841
REMARK  841  A    between atoms: _2884  and  _2885
REMARK  842  A    between atoms: _2884  and  _2887
REMARK  843  A    between atoms: _2887  and  _2888
REMARK  844  A    between atoms: _2888  and  _2889
REMARK  845  A    between atoms: _2899  and  _2900
REMARK  846  A    between atoms: _2900  and  _2901
REMARK  847  A    between atoms: _2900  and  _2903
REMARK  848  A    between atoms: _2903  and  _2904
REMARK  849  A    between atoms: _2904  and  _2905
REMARK  850  A    between atoms: _2905  and  _2906
REMARK  851  A    between atoms: _2923  and  _2924
REMARK  852  A    between atoms: _2924  and  _2925
REMARK  853  A    between atoms: _2924  and  _2927
REMARK  854  A    between atoms: _2927  and  _2928
REMARK  855  A    between atoms: _2928  and  _2929
REMARK  856  A    between atoms: _2929  and  _2930
REMARK  857  A    between atoms: _2947  and  _2948
REMARK  858  A    between atoms: _2948  and  _2949
REMARK  859  A    between atoms: _2948  and  _2951
REMARK  860  A    between atoms: _2951  and  _2952
REMARK  861  A    between atoms: _2951  and  _2953
REMARK  862  A    between atoms: _2952  and  _2954
REMARK  863  A    between atoms: _2966  and  _2967
REMARK  864  A    between atoms: _2967  and  _2968
REMARK  865  A    between atoms: _2967  and  _2970
REMARK  866  A    between atoms: _2970  and  _2971
REMARK  867  A    between atoms: _2971  and  _2972
REMARK  868  A    between atoms: _2972  and  _2973
REMARK  869  A    between atoms: _2973  and  _2974
REMARK  870  A    between atoms: _2988  and  _2989
REMARK  871  A    between atoms: _2989  and  _2990
REMARK  872  A    between atoms: _2989  and  _2992
REMARK  873  A    between atoms: _2992  and  _2993
REMARK  874  A    between atoms: _2993  and  _2994
REMARK  875  A    between atoms: _3003  and  _3004
REMARK  876  A    between atoms: _3004  and  _3005
REMARK  877  A    between atoms: _3004  and  _3007
REMARK  878  A    between atoms: _3007  and  _3008
REMARK  879  A    between atoms: _3007  and  _3009
REMARK  880  A    between atoms: _3008  and  _3010
REMARK  881  A    between atoms: _3022  and  _3023
REMARK  882  A    between atoms: _3023  and  _3024
REMARK  883  A    between atoms: _3023  and  _3026
REMARK  884  A    between atoms: _3026  and  _3027
REMARK  885  A    between atoms: _3026  and  _3028
REMARK  886  A    between atoms: _3038  and  _3039
REMARK  887  A    between atoms: _3039  and  _3040
REMARK  888  A    between atoms: _3039  and  _3042
REMARK  889  A    between atoms: _3042  and  _3043
REMARK  890  A    between atoms: _3043  and  _3044
REMARK  891  A    between atoms: _3044  and  _3045
REMARK  892  A    between atoms: _3045  and  _3046
REMARK  893  A    between atoms: _3060  and  _3061
REMARK  894  A    between atoms: _3061  and  _3062
REMARK  895  A    between atoms: _3061  and  _3064
REMARK  896  A    between atoms: _3064  and  _3065
REMARK  897  A    between atoms: _3065  and  _3066
REMARK  898  A    between atoms: _3066  and  _3067
REMARK  899  A    between atoms: _3067  and  _3068
REMARK  900  A    between atoms: _3082  and  _3083
REMARK  901  A    between atoms: _3083  and  _3084
REMARK  902  A    between atoms: _3083  and  _3086
REMARK  903  A    between atoms: _3086  and  _3087
REMARK  904  A    between atoms: _3099  and  _3100
REMARK  905  A    between atoms: _3100  and  _3101
REMARK  906  A    between atoms: _3100  and  _3103
REMARK  907  A    between atoms: _3103  and  _3104
REMARK  908  A    between atoms: _3110  and  _3111
REMARK  909  A    between atoms: _3111  and  _3112
REMARK  910  A    between atoms: _3111  and  _3114
REMARK  911  A    between atoms: _3114  and  _3115
REMARK  912  A    between atoms: _3115  and  _3116
REMARK  913  A    between atoms: _3127  and  _3128
REMARK  914  A    between atoms: _3128  and  _3129
REMARK  915  A    between atoms: _3128  and  _3131
REMARK  916  A    between atoms: _3131  and  _3132
REMARK  917  A    between atoms: _3147  and  _3148
REMARK  918  A    between atoms: _3148  and  _3149
REMARK  919  A    between atoms: _3148  and  _3151
REMARK  920  A    between atoms: _3151  and  _3152
REMARK  921  A    between atoms: _3151  and  _3153
REMARK  922  A    between atoms: _3152  and  _3154
REMARK  923  A    between atoms: _3166  and  _3167
REMARK  924  A    between atoms: _3167  and  _3168
REMARK  925  A    between atoms: _3173  and  _3174
REMARK  926  A    between atoms: _3174  and  _3175
REMARK  927  A    between atoms: _3174  and  _3177
REMARK  928  A    between atoms: _3177  and  _3178
REMARK  929  A    between atoms: _3183  and  _3184
REMARK  930  A    between atoms: _3195  and  _3196
REMARK  931  A    between atoms: _3208  and  _3209
REMARK  932  A    between atoms: _3209  and  _3210
REMARK  933  A    between atoms: _3209  and  _3212
REMARK  934  A    between atoms: _3212  and  _3213
REMARK  935  A    between atoms: _3212  and  _3214
REMARK  936  A    between atoms: _3213  and  _3215
REMARK  937  A    between atoms: _3227  and  _3228
REMARK  938  A    between atoms: _3228  and  _3229
REMARK  939  A    between atoms: _3228  and  _3231
REMARK  940  A    between atoms: _3231  and  _3232
REMARK  941  A    between atoms: _3231  and  _3233
REMARK  942  A    between atoms: _3241  and  _3242
REMARK  943  A    between atoms: _3242  and  _3243
REMARK  944  A    between atoms: _3242  and  _3245
REMARK  945  A    between atoms: _3245  and  _3246
REMARK  946  A    between atoms: _3246  and  _3247
REMARK  947  A    between atoms: _3246  and  _3248
REMARK  948  A    between atoms: _3260  and  _3261
REMARK  949  A    between atoms: _3261  and  _3262
REMARK  950  A    between atoms: _3261  and  _3264
REMARK  951  A    between atoms: _3264  and  _3265
REMARK  952  A    between atoms: _3280  and  _3281
REMARK  953  A    between atoms: _3281  and  _3282
REMARK  954  A    between atoms: _3281  and  _3284
REMARK  955  A    between atoms: _3284  and  _3285
REMARK  956  A    between atoms: _3284  and  _3286
REMARK  957  A    between atoms: _3296  and  _3297
REMARK  958  A    between atoms: _3297  and  _3298
REMARK  959  A    between atoms: _3297  and  _3300
REMARK  960  A    between atoms: _3300  and  _3301
REMARK  961  A    between atoms: _3301  and  _3302
REMARK                            x       y       z     vdW  Elec       q    Type
REMARK                         _______ _______ _______ _____ _____    ______ ____
ROOT
ATOM      1  C   UNL     1      12.791  33.491  18.096  0.00  0.00    +0.000 C 
ENDROOT
TORSDOF 0
REMARK  Name = /Users/mlugowska/PhD/ML_residence_time_prediction/protein_files/5J20_protein.pdb
REMARK  961 active torsions:
REMARK  status: ('A' for Active; 'I' for Inactive)
REMARK    1  A    between atoms: _2  and  _3
REMARK    2  A    between atoms: _2  and  _5
REMARK    3  A    between atoms: _10  and  _11
REMARK    4  A    between atoms: _11  and  _12
REMARK    5  A    between atoms: _11  and  _14
REMARK    6  A    between atoms: _14  and  _15
REMARK    7  A    between atoms: _14  and  _16
REMARK    8  A    between atoms: _26  and  _27
REMARK    9  A    between atoms: _27  and  _28
REMARK   10  A    between atoms: _27  and  _30
REMARK   11  A    between atoms: _30  and  _31
REMARK   12  A    between atoms: _31  and  _32
REMARK   13  A    between atoms: _41  and  _42
REMARK   14  A    between atoms: _42  and  _43
REMARK   15  A    between atoms: _42  and  _45
REMARK   16  A    between atoms: _45  and  _46
REMARK   17  A    between atoms: _45  and  _47
REMARK   18  A    between atoms: _55  and  _56
REMARK   19  A    between atoms: _56  and  _57
REMARK   20  A    between atoms: _56  and  _59
REMARK   21  A    between atoms: _59  and  _60
REMARK   22  A    between atoms: _75  and  _76
REMARK   23  A    between atoms: _76  and  _77
REMARK   24  A    between atoms: _76  and  _79
REMARK   25  A    between atoms: _85  and  _86
REMARK   26  A    between atoms: _86  and  _87
REMARK   27  A    between atoms: _86  and  _89
REMARK   28  A    between atoms: _89  and  _90
REMARK   29  A    between atoms: _105  and  _106
REMARK   30  A    between atoms: _106  and  _107
REMARK   31  A    between atoms: _106  and  _109
REMARK   32  A    between atoms: _109  and  _110
REMARK   33  A    between atoms: _110  and  _111
REMARK   34  A    between atoms: _122  and  _123
REMARK   35  A    between atoms: _123  and  _124
REMARK   36  A    between atoms: _123  and  _126
REMARK   37  A    between atoms: _132  and  _133
REMARK   38  A    between atoms: _133  and  _134
REMARK   39  A    between atoms: _133  and  _136
REMARK   40  A    between atoms: _136  and  _137
REMARK   41  A    between atoms: _137  and  _138
REMARK   42  A    between atoms: _147  and  _148
REMARK   43  A    between atoms: _148  and  _149
REMARK   44  A    between atoms: _148  and  _151
REMARK   45  A    between atoms: _151  and  _152
REMARK   46  A    between atoms: _151  and  _153
REMARK   47  A    between atoms: _152  and  _154
REMARK   48  A    between atoms: _166  and  _167
REMARK   49  A    between atoms: _167  and  _168
REMARK   50  A    between atoms: _167  and  _170
REMARK   51  A    between atoms: _176  and  _177
REMARK   52  A    between atoms: _177  and  _178
REMARK   53  A    between atoms: _177  and  _180
REMARK   54  A    between atoms: _180  and  _181
REMARK   55  A    between atoms: _181  and  _182
REMARK   56  A    between atoms: _193  and  _194
REMARK   57  A    between atoms: _194  and  _195
REMARK   58  A    between atoms: _194  and  _197
REMARK   59  A    between atoms: _197  and  _198
REMARK   60  A    between atoms: _198  and  _199
REMARK   61  A    between atoms: _198  and  _200
REMARK   62  A    between atoms: _212  and  _213
REMARK   63  A    between atoms: _213  and  _214
REMARK   64  A    between atoms: _213  and  _216
REMARK   65  A    between atoms: _216  and  _217
REMARK   66  A    between atoms: _217  and  _218
REMARK   67  A    between atoms: _218  and  _219
REMARK   68  A    between atoms: _229  and  _230
REMARK   69  A    between atoms: _230  and  _231
REMARK   70  A    between atoms: _230  and  _233
REMARK   71  A    between atoms: _233  and  _234
REMARK   72  A    between atoms: _240  and  _241
REMARK   73  A    between atoms: _241  and  _242
REMARK   74  A    between atoms: _241  and  _244
REMARK   75  A    between atoms: _244  and  _245
REMARK   76  A    between atoms: _245  and  _246
REMARK   77  A    between atoms: _245  and  _247
REMARK   78  A    between atoms: _259  and  _260
REMARK   79  A    between atoms: _260  and  _261
REMARK   80  A    between atoms: _260  and  _263
REMARK   81  A    between atoms: _263  and  _264
REMARK   82  A    between atoms: _263  and  _265
REMARK   83  A    between atoms: _264  and  _266
REMARK   84  A    between atoms: _278  and  _279
REMARK   85  A    between atoms: _279  and  _280
REMARK   86  A    between atoms: _279  and  _282
REMARK   87  A    between atoms: _282  and  _283
REMARK   88  A    between atoms: _282  and  _284
REMARK   89  A    between atoms: _283  and  _285
REMARK   90  A    between atoms: _297  and  _298
REMARK   91  A    between atoms: _298  and  _299
REMARK   92  A    between atoms: _298  and  _301
REMARK   93  A    between atoms: _301  and  _302
REMARK   94  A    between atoms: _311  and  _312
REMARK   95  A    between atoms: _312  and  _313
REMARK   96  A    between atoms: _312  and  _315
REMARK   97  A    between atoms: _315  and  _316
REMARK   98  A    between atoms: _315  and  _317
REMARK   99  A    between atoms: _325  and  _326
REMARK  100  A    between atoms: _326  and  _327
REMARK  101  A    between atoms: _326  and  _329
REMARK  102  A    between atoms: _329  and  _330
REMARK  103  A    between atoms: _345  and  _346
REMARK  104  A    between atoms: _346  and  _347
REMARK  105  A    between atoms: _346  and  _349
REMARK  106  A    between atoms: _349  and  _350
REMARK  107  A    between atoms: _355  and  _356
REMARK  108  A    between atoms: _366  and  _367
REMARK  109  A    between atoms: _367  and  _368
REMARK  110  A    between atoms: _367  and  _370
REMARK  111  A    between atoms: _370  and  _371
REMARK  112  A    between atoms: _377  and  _378
REMARK  113  A    between atoms: _378  and  _379
REMARK  114  A    between atoms: _378  and  _381
REMARK  115  A    between atoms: _381  and  _382
REMARK  116  A    between atoms: _391  and  _392
REMARK  117  A    between atoms: _392  and  _393
REMARK  118  A    between atoms: _392  and  _395
REMARK  119  A    between atoms: _395  and  _396
REMARK  120  A    between atoms: _396  and  _397
REMARK  121  A    between atoms: _397  and  _398
REMARK  122  A    between atoms: _398  and  _399
REMARK  123  A    between atoms: _413  and  _414
REMARK  124  A    between atoms: _414  and  _415
REMARK  125  A    between atoms: _414  and  _417
REMARK  126  A    between atoms: _417  and  _418
REMARK  127  A    between atoms: _418  and  _419
REMARK  128  A    between atoms: _428  and  _429
REMARK  129  A    between atoms: _429  and  _430
REMARK  130  A    between atoms: _429  and  _432
REMARK  131  A    between atoms: _432  and  _433
REMARK  132  A    between atoms: _432  and  _434
REMARK  133  A    between atoms: _433  and  _435
REMARK  134  A    between atoms: _447  and  _448
REMARK  135  A    between atoms: _448  and  _449
REMARK  136  A    between atoms: _448  and  _451
REMARK  137  A    between atoms: _451  and  _452
REMARK  138  A    between atoms: _467  and  _468
REMARK  139  A    between atoms: _468  and  _469
REMARK  140  A    between atoms: _468  and  _471
REMARK  141  A    between atoms: _471  and  _472
REMARK  142  A    between atoms: _472  and  _473
REMARK  143  A    between atoms: _472  and  _474
REMARK  144  A    between atoms: _486  and  _487
REMARK  145  A    between atoms: _487  and  _488
REMARK  146  A    between atoms: _487  and  _490
REMARK  147  A    between atoms: _490  and  _491
REMARK  148  A    between atoms: _491  and  _492
REMARK  149  A    between atoms: _492  and  _493
REMARK  150  A    between atoms: _510  and  _511
REMARK  151  A    between atoms: _511  and  _512
REMARK  152  A    between atoms: _511  and  _514
REMARK  153  A    between atoms: _514  and  _515
REMARK  154  A    between atoms: _515  and  _516
REMARK  155  A    between atoms: _525  and  _526
REMARK  156  A    between atoms: _526  and  _527
REMARK  157  A    between atoms: _526  and  _529
REMARK  158  A    between atoms: _529  and  _530
REMARK  159  A    between atoms: _530  and  _531
REMARK  160  A    between atoms: _530  and  _532
REMARK  161  A    between atoms: _544  and  _545
REMARK  162  A    between atoms: _545  and  _546
REMARK  163  A    between atoms: _545  and  _548
REMARK  164  A    between atoms: _548  and  _549
REMARK  165  A    between atoms: _548  and  _550
REMARK  166  A    between atoms: _549  and  _551
REMARK  167  A    between atoms: _563  and  _564
REMARK  168  A    between atoms: _564  and  _565
REMARK  169  A    between atoms: _564  and  _567
REMARK  170  A    between atoms: _567  and  _568
REMARK  171  A    between atoms: _574  and  _575
REMARK  172  A    between atoms: _575  and  _576
REMARK  173  A    between atoms: _575  and  _578
REMARK  174  A    between atoms: _578  and  _579
REMARK  175  A    between atoms: _588  and  _589
REMARK  176  A    between atoms: _589  and  _590
REMARK  177  A    between atoms: _589  and  _592
REMARK  178  A    between atoms: _592  and  _593
REMARK  179  A    between atoms: _599  and  _600
REMARK  180  A    between atoms: _600  and  _601
REMARK  181  A    between atoms: _600  and  _603
REMARK  182  A    between atoms: _603  and  _604
REMARK  183  A    between atoms: _610  and  _611
REMARK  184  A    between atoms: _611  and  _612
REMARK  185  A    between atoms: _611  and  _614
REMARK  186  A    between atoms: _614  and  _615
REMARK  187  A    between atoms: _622  and  _623
REMARK  188  A    between atoms: _623  and  _624
REMARK  189  A    between atoms: _623  and  _626
REMARK  190  A    between atoms: _632  and  _633
REMARK  191  A    between atoms: _633  and  _634
REMARK  192  A    between atoms: _633  and  _636
REMARK  193  A    between atoms: _636  and  _637
REMARK  194  A    between atoms: _637  and  _638
REMARK  195  A    between atoms: _637  and  _639
REMARK  196  A    between atoms: _651  and  _652
REMARK  197  A    between atoms: _652  and  _653
REMARK  198  A    between atoms: _652  and  _655
REMARK  199  A    between atoms: _655  and  _656
REMARK  200  A    between atoms: _663  and  _664
REMARK  201  A    between atoms: _664  and  _665
REMARK  202  A    between atoms: _664  and  _667
REMARK  203  A    between atoms: _667  and  _668
REMARK  204  A    between atoms: _668  and  _669
REMARK  205  A    between atoms: _669  and  _670
REMARK  206  A    between atoms: _670  and  _671
REMARK  207  A    between atoms: _685  and  _686
REMARK  208  A    between atoms: _686  and  _687
REMARK  209  A    between atoms: _686  and  _689
REMARK  210  A    between atoms: _689  and  _690
REMARK  211  A    between atoms: _689  and  _691
REMARK  212  A    between atoms: _690  and  _692
REMARK  213  A    between atoms: _704  and  _705
REMARK  214  A    between atoms: _705  and  _706
REMARK  215  A    between atoms: _705  and  _708
REMARK  216  A    between atoms: _708  and  _709
REMARK  217  A    between atoms: _709  and  _710
REMARK  218  A    between atoms: _710  and  _711
REMARK  219  A    between atoms: _728  and  _729
REMARK  220  A    between atoms: _729  and  _730
REMARK  221  A    between atoms: _729  and  _732
REMARK  222  A    between atoms: _732  and  _733
REMARK  223  A    between atoms: _738  and  _739
REMARK  224  A    between atoms: _749  and  _750
REMARK  225  A    between atoms: _750  and  _751
REMARK  226  A    between atoms: _750  and  _753
REMARK  227  A    between atoms: _753  and  _754
REMARK  228  A    between atoms: _754  and  _755
REMARK  229  A    between atoms: _764  and  _765
REMARK  230  A    between atoms: _765  and  _766
REMARK  231  A    between atoms: _765  and  _768
REMARK  232  A    between atoms: _772  and  _773
REMARK  233  A    between atoms: _773  and  _774
REMARK  234  A    between atoms: _773  and  _776
REMARK  235  A    between atoms: _776  and  _777
REMARK  236  A    between atoms: _777  and  _778
REMARK  237  A    between atoms: _777  and  _779
REMARK  238  A    between atoms: _791  and  _792
REMARK  239  A    between atoms: _792  and  _793
REMARK  240  A    between atoms: _792  and  _795
REMARK  241  A    between atoms: _795  and  _796
REMARK  242  A    between atoms: _795  and  _797
REMARK  243  A    between atoms: _805  and  _806
REMARK  244  A    between atoms: _806  and  _807
REMARK  245  A    between atoms: _806  and  _809
REMARK  246  A    between atoms: _809  and  _810
REMARK  247  A    between atoms: _818  and  _819
REMARK  248  A    between atoms: _831  and  _832
REMARK  249  A    between atoms: _832  and  _833
REMARK  250  A    between atoms: _832  and  _835
REMARK  251  A    between atoms: _835  and  _836
REMARK  252  A    between atoms: _842  and  _843
REMARK  253  A    between atoms: _843  and  _844
REMARK  254  A    between atoms: _843  and  _846
REMARK  255  A    between atoms: _846  and  _847
REMARK  256  A    between atoms: _847  and  _848
REMARK  257  A    between atoms: _848  and  _849
REMARK  258  A    between atoms: _849  and  _850
REMARK  259  A    between atoms: _864  and  _865
REMARK  260  A    between atoms: _865  and  _866
REMARK  261  A    between atoms: _865  and  _868
REMARK  262  A    between atoms: _868  and  _869
REMARK  263  A    between atoms: _869  and  _870
REMARK  264  A    between atoms: _869  and  _871
REMARK  265  A    between atoms: _883  and  _884
REMARK  266  A    between atoms: _884  and  _885
REMARK  267  A    between atoms: _884  and  _887
REMARK  268  A    between atoms: _887  and  _888
REMARK  269  A    between atoms: _895  and  _896
REMARK  270  A    between atoms: _896  and  _897
REMARK  271  A    between atoms: _896  and  _899
REMARK  272  A    between atoms: _899  and  _900
REMARK  273  A    between atoms: _906  and  _907
REMARK  274  A    between atoms: _907  and  _908
REMARK  275  A    between atoms: _913  and  _914
REMARK  276  A    between atoms: _914  and  _915
REMARK  277  A    between atoms: _914  and  _917
REMARK  278  A    between atoms: _917  and  _918
REMARK  279  A    between atoms: _918  and  _919
REMARK  280  A    between atoms: _919  and  _920
REMARK  281  A    between atoms: _920  and  _921
REMARK  282  A    between atoms: _935  and  _936
REMARK  283  A    between atoms: _936  and  _937
REMARK  284  A    between atoms: _936  and  _939
REMARK  285  A    between atoms: _939  and  _940
REMARK  286  A    between atoms: _940  and  _941
REMARK  287  A    between atoms: _950  and  _951
REMARK  288  A    between atoms: _951  and  _952
REMARK  289  A    between atoms: _951  and  _954
REMARK  290  A    between atoms: _954  and  _955
REMARK  291  A    between atoms: _955  and  _956
REMARK  292  A    between atoms: _955  and  _957
REMARK  293  A    between atoms: _969  and  _970
REMARK  294  A    between atoms: _970  and  _971
REMARK  295  A    between atoms: _970  and  _973
REMARK  296  A    between atoms: _973  and  _974
REMARK  297  A    between atoms: _986  and  _987
REMARK  298  A    between atoms: _987  and  _988
REMARK  299  A    between atoms: _987  and  _990
REMARK  300  A    between atoms: _990  and  _991
REMARK  301  A    between atoms: _990  and  _992
REMARK  302  A    between atoms: _991  and  _993
REMARK  303  A    between atoms: _1005  and  _1006
REMARK  304  A    between atoms: _1006  and  _1007
REMARK  305  A    between atoms: _1006  and  _1009
REMARK  306  A    between atoms: _1009  and  _1010
REMARK  307  A    between atoms: _1019  and  _1020
REMARK  308  A    between atoms: _1020  and  _1021
REMARK  309  A    between atoms: _1020  and  _1023
REMARK  310  A    between atoms: _1023  and  _1024
REMARK  311  A    between atoms: _1024  and  _1025
REMARK  312  A    between atoms: _1024  and  _1026
REMARK  313  A    between atoms: _1038  and  _1039
REMARK  314  A    between atoms: _1039  and  _1040
REMARK  315  A    between atoms: _1039  and  _1042
REMARK  316  A    between atoms: _1042  and  _1043
REMARK  317  A    between atoms: _1042  and  _1044
REMARK  318  A    between atoms: _1043  and  _1045
REMARK  319  A    between atoms: _1058  and  _1059
REMARK  320  A    between atoms: _1071  and  _1072
REMARK  321  A    between atoms: _1072  and  _1073
REMARK  322  A    between atoms: _1072  and  _1075
REMARK  323  A    between atoms: _1075  and  _1076
REMARK  324  A    between atoms: _1085  and  _1086
REMARK  325  A    between atoms: _1086  and  _1087
REMARK  326  A    between atoms: _1086  and  _1089
REMARK  327  A    between atoms: _1089  and  _1090
REMARK  328  A    between atoms: _1090  and  _1091
REMARK  329  A    between atoms: _1091  and  _1092
REMARK  330  A    between atoms: _1092  and  _1093
REMARK  331  A    between atoms: _1107  and  _1108
REMARK  332  A    between atoms: _1108  and  _1109
REMARK  333  A    between atoms: _1108  and  _1111
REMARK  334  A    between atoms: _1111  and  _1112
REMARK  335  A    between atoms: _1112  and  _1113
REMARK  336  A    between atoms: _1124  and  _1125
REMARK  337  A    between atoms: _1125  and  _1126
REMARK  338  A    between atoms: _1125  and  _1128
REMARK  339  A    between atoms: _1128  and  _1129
REMARK  340  A    between atoms: _1136  and  _1137
REMARK  341  A    between atoms: _1137  and  _1138
REMARK  342  A    between atoms: _1137  and  _1140
REMARK  343  A    between atoms: _1140  and  _1141
REMARK  344  A    between atoms: _1141  and  _1142
REMARK  345  A    between atoms: _1142  and  _1143
REMARK  346  A    between atoms: _1160  and  _1161
REMARK  347  A    between atoms: _1161  and  _1162
REMARK  348  A    between atoms: _1161  and  _1164
REMARK  349  A    between atoms: _1164  and  _1165
REMARK  350  A    between atoms: _1164  and  _1166
REMARK  351  A    between atoms: _1174  and  _1175
REMARK  352  A    between atoms: _1175  and  _1176
REMARK  353  A    between atoms: _1175  and  _1178
REMARK  354  A    between atoms: _1178  and  _1179
REMARK  355  A    between atoms: _1179  and  _1180
REMARK  356  A    between atoms: _1179  and  _1181
REMARK  357  A    between atoms: _1193  and  _1194
REMARK  358  A    between atoms: _1194  and  _1195
REMARK  359  A    between atoms: _1194  and  _1197
REMARK  360  A    between atoms: _1197  and  _1198
REMARK  361  A    between atoms: _1197  and  _1199
REMARK  362  A    between atoms: _1207  and  _1208
REMARK  363  A    between atoms: _1208  and  _1209
REMARK  364  A    between atoms: _1208  and  _1211
REMARK  365  A    between atoms: _1211  and  _1212
REMARK  366  A    between atoms: _1211  and  _1213
REMARK  367  A    between atoms: _1212  and  _1214
REMARK  368  A    between atoms: _1226  and  _1227
REMARK  369  A    between atoms: _1227  and  _1228
REMARK  370  A    between atoms: _1227  and  _1230
REMARK  371  A    between atoms: _1230  and  _1231
REMARK  372  A    between atoms: _1230  and  _1232
REMARK  373  A    between atoms: _1242  and  _1243
REMARK  374  A    between atoms: _1243  and  _1244
REMARK  375  A    between atoms: _1243  and  _1246
REMARK  376  A    between atoms: _1246  and  _1247
REMARK  377  A    between atoms: _1254  and  _1255
REMARK  378  A    between atoms: _1255  and  _1256
REMARK  379  A    between atoms: _1255  and  _1258
REMARK  380  A    between atoms: _1258  and  _1259
REMARK  381  A    between atoms: _1258  and  _1260
REMARK  382  A    between atoms: _1268  and  _1269
REMARK  383  A    between atoms: _1269  and  _1270
REMARK  384  A    between atoms: _1275  and  _1276
REMARK  385  A    between atoms: _1276  and  _1277
REMARK  386  A    between atoms: _1276  and  _1279
REMARK  387  A    between atoms: _1279  and  _1280
REMARK  388  A    between atoms: _1279  and  _1281
REMARK  389  A    between atoms: _1280  and  _1282
REMARK  390  A    between atoms: _1294  and  _1295
REMARK  391  A    between atoms: _1295  and  _1296
REMARK  392  A    between atoms: _1301  and  _1302
REMARK  393  A    between atoms: _1302  and  _1303
REMARK  394  A    between atoms: _1302  and  _1305
REMARK  395  A    between atoms: _1305  and  _1306
REMARK  396  A    between atoms: _1306  and  _1307
REMARK  397  A    between atoms: _1307  and  _1308
REMARK  398  A    between atoms: _1318  and  _1319
REMARK  399  A    between atoms: _1319  and  _1320
REMARK  400  A    between atoms: _1319  and  _1322
REMARK  401  A    between atoms: _1322  and  _1323
REMARK  402  A    between atoms: _1322  and  _1324
REMARK  403  A    between atoms: _1332  and  _1333
REMARK  404  A    between atoms: _1333  and  _1334
REMARK  405  A    between atoms: _1333  and  _1336
REMARK  406  A    between atoms: _1336  and  _1337
REMARK  407  A    between atoms: _1337  and  _1338
REMARK  408  A    between atoms: _1338  and  _1339
REMARK  409  A    between atoms: _1339  and  _1340
REMARK  410  A    between atoms: _1354  and  _1355
REMARK  411  A    between atoms: _1355  and  _1356
REMARK  412  A    between atoms: _1355  and  _1358
REMARK  413  A    between atoms: _1364  and  _1365
REMARK  414  A    between atoms: _1365  and  _1366
REMARK  415  A    between atoms: _1365  and  _1368
REMARK  416  A    between atoms: _1368  and  _1369
REMARK  417  A    between atoms: _1376  and  _1377
REMARK  418  A    between atoms: _1377  and  _1378
REMARK  419  A    between atoms: _1377  and  _1380
REMARK  420  A    between atoms: _1380  and  _1381
REMARK  421  A    between atoms: _1381  and  _1382
REMARK  422  A    between atoms: _1381  and  _1383
REMARK  423  A    between atoms: _1395  and  _1396
REMARK  424  A    between atoms: _1396  and  _1399
REMARK  425  A    between atoms: _1399  and  _1400
REMARK  426  A    between atoms: _1399  and  _1401
REMARK  427  A    between atoms: _1400  and  _1402
REMARK  428  A    between atoms: _1422  and  _1425
REMARK  429  A    between atoms: _1424  and  _1428
REMARK  430  A    between atoms: _1425  and  _1427
REMARK  431  A    between atoms: _1443  and  _1444
REMARK  432  A    between atoms: _1443  and  _1446
REMARK  433  A    between atoms: _1446  and  _1447
REMARK  434  A    between atoms: _1457  and  _1458
REMARK  435  A    between atoms: _1458  and  _1459
REMARK  436  A    between atoms: _1458  and  _1461
REMARK  437  A    between atoms: _1461  and  _1462
REMARK  438  A    between atoms: _1462  and  _1463
REMARK  439  A    between atoms: _1462  and  _1464
REMARK  440  A    between atoms: _1476  and  _1477
REMARK  441  A    between atoms: _1477  and  _1478
REMARK  442  A    between atoms: _1483  and  _1484
REMARK  443  A    between atoms: _1484  and  _1485
REMARK  444  A    between atoms: _1484  and  _1487
REMARK  445  A    between atoms: _1487  and  _1488
REMARK  446  A    between atoms: _1487  and  _1489
REMARK  447  A    between atoms: _1497  and  _1498
REMARK  448  A    between atoms: _1498  and  _1499
REMARK  449  A    between atoms: _1498  and  _1501
REMARK  450  A    between atoms: _1501  and  _1502
REMARK  451  A    between atoms: _1501  and  _1503
REMARK  452  A    between atoms: _1502  and  _1504
REMARK  453  A    between atoms: _1516  and  _1517
REMARK  454  A    between atoms: _1517  and  _1518
REMARK  455  A    between atoms: _1517  and  _1520
REMARK  456  A    between atoms: _1526  and  _1527
REMARK  457  A    between atoms: _1527  and  _1528
REMARK  458  A    between atoms: _1527  and  _1530
REMARK  459  A    between atoms: _1530  and  _1531
REMARK  460  A    between atoms: _1531  and  _1532
REMARK  461  A    between atoms: _1532  and  _1533
REMARK  462  A    between atoms: _1533  and  _1534
REMARK  463  A    between atoms: _1548  and  _1549
REMARK  464  A    between atoms: _1549  and  _1550
REMARK  465  A    between atoms: _1549  and  _1552
REMARK  466  A    between atoms: _1552  and  _1553
REMARK  467  A    between atoms: _1559  and  _1560
REMARK  468  A    between atoms: _1560  and  _1561
REMARK  469  A    between atoms: _1566  and  _1567
REMARK  470  A    between atoms: _1567  and  _1568
REMARK  471  A    between atoms: _1567  and  _1570
REMARK  472  A    between atoms: _1570  and  _1571
REMARK  473  A    between atoms: _1570  and  _1572
REMARK  474  A    between atoms: _1580  and  _1581
REMARK  475  A    between atoms: _1581  and  _1582
REMARK  476  A    between atoms: _1581  and  _1584
REMARK  477  A    between atoms: _1584  and  _1585
REMARK  478  A    between atoms: _1585  and  _1586
REMARK  479  A    between atoms: _1586  and  _1587
REMARK  480  A    between atoms: _1587  and  _1588
REMARK  481  A    between atoms: _1602  and  _1603
REMARK  482  A    between atoms: _1603  and  _1604
REMARK  483  A    between atoms: _1603  and  _1606
REMARK  484  A    between atoms: _1612  and  _1613
REMARK  485  A    between atoms: _1613  and  _1614
REMARK  486  A    between atoms: _1613  and  _1616
REMARK  487  A    between atoms: _1616  and  _1617
REMARK  488  A    between atoms: _1632  and  _1633
REMARK  489  A    between atoms: _1633  and  _1634
REMARK  490  A    between atoms: _1633  and  _1636
REMARK  491  A    between atoms: _1636  and  _1637
REMARK  492  A    between atoms: _1637  and  _1638
REMARK  493  A    between atoms: _1638  and  _1639
REMARK  494  A    between atoms: _1649  and  _1650
REMARK  495  A    between atoms: _1650  and  _1651
REMARK  496  A    between atoms: _1650  and  _1653
REMARK  497  A    between atoms: _1653  and  _1654
REMARK  498  A    between atoms: _1654  and  _1655
REMARK  499  A    between atoms: _1664  and  _1665
REMARK  500  A    between atoms: _1665  and  _1666
REMARK  501  A    between atoms: _1665  and  _1668
REMARK  502  A    between atoms: _1674  and  _1675
REMARK  503  A    between atoms: _1675  and  _1676
REMARK  504  A    between atoms: _1675  and  _1678
REMARK  505  A    between atoms: _1678  and  _1679
REMARK  506  A    between atoms: _1679  and  _1680
REMARK  507  A    between atoms: _1679  and  _1681
REMARK  508  A    between atoms: _1693  and  _1694
REMARK  509  A    between atoms: _1694  and  _1695
REMARK  510  A    between atoms: _1694  and  _1697
REMARK  511  A    between atoms: _1697  and  _1698
REMARK  512  A    between atoms: _1698  and  _1699
REMARK  513  A    between atoms: _1710  and  _1711
REMARK  514  A    between atoms: _1711  and  _1712
REMARK  515  A    between atoms: _1711  and  _1714
REMARK  516  A    between atoms: _1720  and  _1721
REMARK  517  A    between atoms: _1721  and  _1722
REMARK  518  A    between atoms: _1727  and  _1728
REMARK  519  A    between atoms: _1728  and  _1729
REMARK  520  A    between atoms: _1728  and  _1731
REMARK  521  A    between atoms: _1737  and  _1738
REMARK  522  A    between atoms: _1738  and  _1739
REMARK  523  A    between atoms: _1738  and  _1741
REMARK  524  A    between atoms: _1741  and  _1742
REMARK  525  A    between atoms: _1749  and  _1750
REMARK  526  A    between atoms: _1750  and  _1751
REMARK  527  A    between atoms: _1750  and  _1753
REMARK  528  A    between atoms: _1753  and  _1754
REMARK  529  A    between atoms: _1753  and  _1755
REMARK  530  A    between atoms: _1754  and  _1756
REMARK  531  A    between atoms: _1768  and  _1769
REMARK  532  A    between atoms: _1769  and  _1772
REMARK  533  A    between atoms: _1772  and  _1773
REMARK  534  A    between atoms: _1791  and  _1793
REMARK  535  A    between atoms: _1792  and  _1794
REMARK  536  A    between atoms: _1814  and  _1815
REMARK  537  A    between atoms: _1814  and  _1817
REMARK  538  A    between atoms: _1817  and  _1818
REMARK  539  A    between atoms: _1817  and  _1819
REMARK  540  A    between atoms: _1818  and  _1820
REMARK  541  A    between atoms: _1833  and  _1834
REMARK  542  A    between atoms: _1834  and  _1835
REMARK  543  A    between atoms: _1840  and  _1841
REMARK  544  A    between atoms: _1841  and  _1842
REMARK  545  A    between atoms: _1841  and  _1844
REMARK  546  A    between atoms: _1844  and  _1845
REMARK  547  A    between atoms: _1845  and  _1846
REMARK  548  A    between atoms: _1857  and  _1858
REMARK  549  A    between atoms: _1858  and  _1859
REMARK  550  A    between atoms: _1858  and  _1861
REMARK  551  A    between atoms: _1861  and  _1862
REMARK  552  A    between atoms: _1877  and  _1878
REMARK  553  A    between atoms: _1878  and  _1879
REMARK  554  A    between atoms: _1884  and  _1885
REMARK  555  A    between atoms: _1885  and  _1886
REMARK  556  A    between atoms: _1885  and  _1888
REMARK  557  A    between atoms: _1888  and  _1889
REMARK  558  A    between atoms: _1888  and  _1890
REMARK  559  A    between atoms: _1900  and  _1901
REMARK  560  A    between atoms: _1901  and  _1902
REMARK  561  A    between atoms: _1907  and  _1908
REMARK  562  A    between atoms: _1908  and  _1909
REMARK  563  A    between atoms: _1908  and  _1911
REMARK  564  A    between atoms: _1911  and  _1912
REMARK  565  A    between atoms: _1927  and  _1928
REMARK  566  A    between atoms: _1928  and  _1929
REMARK  567  A    between atoms: _1928  and  _1931
REMARK  568  A    between atoms: _1931  and  _1932
REMARK  569  A    between atoms: _1937  and  _1938
REMARK  570  A    between atoms: _1948  and  _1949
REMARK  571  A    between atoms: _1949  and  _1950
REMARK  572  A    between atoms: _1949  and  _1952
REMARK  573  A    between atoms: _1952  and  _1953
REMARK  574  A    between atoms: _1959  and  _1960
REMARK  575  A    between atoms: _1960  and  _1961
REMARK  576  A    between atoms: _1960  and  _1963
REMARK  577  A    between atoms: _1969  and  _1970
REMARK  578  A    between atoms: _1970  and  _1971
REMARK  579  A    between atoms: _1970  and  _1973
REMARK  580  A    between atoms: _1973  and  _1974
REMARK  581  A    between atoms: _1979  and  _1980
REMARK  582  A    between atoms: _1990  and  _1991
REMARK  583  A    between atoms: _1991  and  _1992
REMARK  584  A    between atoms: _1991  and  _1994
REMARK  585  A    between atoms: _1994  and  _1995
REMARK  586  A    between atoms: _1995  and  _1996
REMARK  587  A    between atoms: _1995  and  _1997
REMARK  588  A    between atoms: _2009  and  _2010
REMARK  589  A    between atoms: _2010  and  _2011
REMARK  590  A    between atoms: _2010  and  _2013
REMARK  591  A    between atoms: _2013  and  _2014
REMARK  592  A    between atoms: _2013  and  _2015
REMARK  593  A    between atoms: _2025  and  _2026
REMARK  594  A    between atoms: _2026  and  _2027
REMARK  595  A    between atoms: _2026  and  _2029
REMARK  596  A    between atoms: _2035  and  _2036
REMARK  597  A    between atoms: _2036  and  _2037
REMARK  598  A    between atoms: _2036  and  _2039
REMARK  599  A    between atoms: _2039  and  _2040
REMARK  600  A    between atoms: _2040  and  _2041
REMARK  601  A    between atoms: _2050  and  _2051
REMARK  602  A    between atoms: _2051  and  _2052
REMARK  603  A    between atoms: _2051  and  _2054
REMARK  604  A    between atoms: _2054  and  _2055
REMARK  605  A    between atoms: _2055  and  _2056
REMARK  606  A    between atoms: _2056  and  _2057
REMARK  607  A    between atoms: _2057  and  _2058
REMARK  608  A    between atoms: _2072  and  _2073
REMARK  609  A    between atoms: _2073  and  _2074
REMARK  610  A    between atoms: _2073  and  _2076
REMARK  611  A    between atoms: _2076  and  _2077
REMARK  612  A    between atoms: _2076  and  _2078
REMARK  613  A    between atoms: _2088  and  _2089
REMARK  614  A    between atoms: _2089  and  _2090
REMARK  615  A    between atoms: _2089  and  _2092
REMARK  616  A    between atoms: _2092  and  _2093
REMARK  617  A    between atoms: _2092  and  _2094
REMARK  618  A    between atoms: _2102  and  _2103
REMARK  619  A    between atoms: _2103  and  _2104
REMARK  620  A    between atoms: _2103  and  _2106
REMARK  621  A    between atoms: _2106  and  _2107
REMARK  622  A    between atoms: _2106  and  _2108
REMARK  623  A    between atoms: _2118  and  _2119
REMARK  624  A    between atoms: _2119  and  _2120
REMARK  625  A    between atoms: _2119  and  _2122
REMARK  626  A    between atoms: _2122  and  _2123
REMARK  627  A    between atoms: _2122  and  _2124
REMARK  628  A    between atoms: _2123  and  _2125
REMARK  629  A    between atoms: _2137  and  _2138
REMARK  630  A    between atoms: _2138  and  _2139
REMARK  631  A    between atoms: _2138  and  _2141
REMARK  632  A    between atoms: _2141  and  _2142
REMARK  633  A    between atoms: _2141  and  _2143
REMARK  634  A    between atoms: _2151  and  _2152
REMARK  635  A    between atoms: _2152  and  _2153
REMARK  636  A    between atoms: _2152  and  _2155
REMARK  637  A    between atoms: _2155  and  _2156
REMARK  638  A    between atoms: _2156  and  _2157
REMARK  639  A    between atoms: _2157  and  _2158
REMARK  640  A    between atoms: _2158  and  _2159
REMARK  641  A    between atoms: _2173  and  _2174
REMARK  642  A    between atoms: _2174  and  _2175
REMARK  643  A    between atoms: _2174  and  _2177
REMARK  644  A    between atoms: _2177  and  _2178
REMARK  645  A    between atoms: _2190  and  _2191
REMARK  646  A    between atoms: _2191  and  _2192
REMARK  647  A    between atoms: _2191  and  _2194
REMARK  648  A    between atoms: _2194  and  _2195
REMARK  649  A    between atoms: _2204  and  _2205
REMARK  650  A    between atoms: _2205  and  _2206
REMARK  651  A    between atoms: _2205  and  _2208
REMARK  652  A    between atoms: _2208  and  _2209
REMARK  653  A    between atoms: _2216  and  _2217
REMARK  654  A    between atoms: _2217  and  _2218
REMARK  655  A    between atoms: _2217  and  _2220
REMARK  656  A    between atoms: _2220  and  _2221
REMARK  657  A    between atoms: _2228  and  _2229
REMARK  658  A    between atoms: _2229  and  _2230
REMARK  659  A    between atoms: _2229  and  _2232
REMARK  660  A    between atoms: _2232  and  _2233
REMARK  661  A    between atoms: _2233  and  _2234
REMARK  662  A    between atoms: _2243  and  _2244
REMARK  663  A    between atoms: _2244  and  _2245
REMARK  664  A    between atoms: _2244  and  _2247
REMARK  665  A    between atoms: _2247  and  _2248
REMARK  666  A    between atoms: _2248  and  _2249
REMARK  667  A    between atoms: _2260  and  _2261
REMARK  668  A    between atoms: _2261  and  _2262
REMARK  669  A    between atoms: _2261  and  _2264
REMARK  670  A    between atoms: _2264  and  _2265
REMARK  671  A    between atoms: _2270  and  _2271
REMARK  672  A    between atoms: _2281  and  _2282
REMARK  673  A    between atoms: _2282  and  _2283
REMARK  674  A    between atoms: _2282  and  _2285
REMARK  675  A    between atoms: _2291  and  _2292
REMARK  676  A    between atoms: _2292  and  _2293
REMARK  677  A    between atoms: _2292  and  _2295
REMARK  678  A    between atoms: _2295  and  _2296
REMARK  679  A    between atoms: _2315  and  _2316
REMARK  680  A    between atoms: _2316  and  _2317
REMARK  681  A    between atoms: _2316  and  _2319
REMARK  682  A    between atoms: _2319  and  _2320
REMARK  683  A    between atoms: _2320  and  _2321
REMARK  684  A    between atoms: _2330  and  _2331
REMARK  685  A    between atoms: _2331  and  _2332
REMARK  686  A    between atoms: _2331  and  _2334
REMARK  687  A    between atoms: _2334  and  _2335
REMARK  688  A    between atoms: _2341  and  _2342
REMARK  689  A    between atoms: _2342  and  _2343
REMARK  690  A    between atoms: _2342  and  _2345
REMARK  691  A    between atoms: _2345  and  _2346
REMARK  692  A    between atoms: _2352  and  _2353
REMARK  693  A    between atoms: _2353  and  _2354
REMARK  694  A    between atoms: _2353  and  _2356
REMARK  695  A    between atoms: _2362  and  _2363
REMARK  696  A    between atoms: _2363  and  _2364
REMARK  697  A    between atoms: _2369  and  _2370
REMARK  698  A    between atoms: _2370  and  _2371
REMARK  699  A    between atoms: _2376  and  _2377
REMARK  700  A    between atoms: _2377  and  _2378
REMARK  701  A    between atoms: _2377  and  _2380
REMARK  702  A    between atoms: _2380  and  _2381
REMARK  703  A    between atoms: _2387  and  _2388
REMARK  704  A    between atoms: _2388  and  _2389
REMARK  705  A    between atoms: _2388  and  _2391
REMARK  706  A    between atoms: _2391  and  _2392
REMARK  707  A    between atoms: _2407  and  _2408
REMARK  708  A    between atoms: _2408  and  _2409
REMARK  709  A    between atoms: _2408  and  _2411
REMARK  710  A    between atoms: _2411  and  _2412
REMARK  711  A    between atoms: _2411  and  _2413
REMARK  712  A    between atoms: _2421  and  _2422
REMARK  713  A    between atoms: _2422  and  _2423
REMARK  714  A    between atoms: _2422  and  _2425
REMARK  715  A    between atoms: _2425  and  _2426
REMARK  716  A    between atoms: _2425  and  _2427
REMARK  717  A    between atoms: _2437  and  _2438
REMARK  718  A    between atoms: _2438  and  _2439
REMARK  719  A    between atoms: _2438  and  _2441
REMARK  720  A    between atoms: _2441  and  _2442
REMARK  721  A    between atoms: _2442  and  _2443
REMARK  722  A    between atoms: _2443  and  _2444
REMARK  723  A    between atoms: _2461  and  _2462
REMARK  724  A    between atoms: _2462  and  _2463
REMARK  725  A    between atoms: _2462  and  _2465
REMARK  726  A    between atoms: _2465  and  _2466
REMARK  727  A    between atoms: _2465  and  _2467
REMARK  728  A    between atoms: _2475  and  _2476
REMARK  729  A    between atoms: _2476  and  _2477
REMARK  730  A    between atoms: _2476  and  _2479
REMARK  731  A    between atoms: _2479  and  _2480
REMARK  732  A    between atoms: _2487  and  _2488
REMARK  733  A    between atoms: _2488  and  _2489
REMARK  734  A    between atoms: _2488  and  _2491
REMARK  735  A    between atoms: _2491  and  _2492
REMARK  736  A    between atoms: _2491  and  _2493
REMARK  737  A    between atoms: _2501  and  _2502
REMARK  738  A    between atoms: _2502  and  _2503
REMARK  739  A    between atoms: _2508  and  _2509
REMARK  740  A    between atoms: _2509  and  _2510
REMARK  741  A    between atoms: _2509  and  _2512
REMARK  742  A    between atoms: _2512  and  _2513
REMARK  743  A    between atoms: _2513  and  _2514
REMARK  744  A    between atoms: _2524  and  _2525
REMARK  745  A    between atoms: _2537  and  _2538
REMARK  746  A    between atoms: _2538  and  _2539
REMARK  747  A    between atoms: _2538  and  _2541
REMARK  748  A    between atoms: _2541  and  _2542
REMARK  749  A    between atoms: _2542  and  _2543
REMARK  750  A    between atoms: _2543  and  _2544
REMARK  751  A    between atoms: _2554  and  _2555
REMARK  752  A    between atoms: _2555  and  _2556
REMARK  753  A    between atoms: _2561  and  _2562
REMARK  754  A    between atoms: _2562  and  _2563
REMARK  755  A    between atoms: _2562  and  _2565
REMARK  756  A    between atoms: _2565  and  _2566
REMARK  757  A    between atoms: _2566  and  _2567
REMARK  758  A    between atoms: _2567  and  _2568
REMARK  759  A    between atoms: _2585  and  _2586
REMARK  760  A    between atoms: _2586  and  _2587
REMARK  761  A    between atoms: _2592  and  _2593
REMARK  762  A    between atoms: _2593  and  _2594
REMARK  763  A    between atoms: _2593  and  _2596
REMARK  764  A    between atoms: _2596  and  _2597
REMARK  765  A    between atoms: _2596  and  _2598
REMARK  766  A    between atoms: _2606  and  _2607
REMARK  767  A    between atoms: _2607  and  _2608
REMARK  768  A    between atoms: _2607  and  _2610
REMARK  769  A    between atoms: _2610  and  _2611
REMARK  770  A    between atoms: _2611  and  _2612
REMARK  771  A    between atoms: _2612  and  _2613
REMARK  772  A    between atoms: _2613  and  _2614
REMARK  773  A    between atoms: _2628  and  _2629
REMARK  774  A    between atoms: _2629  and  _2630
REMARK  775  A    between atoms: _2629  and  _2632
REMARK  776  A    between atoms: _2632  and  _2633
REMARK  777  A    between atoms: _2632  and  _2634
REMARK  778  A    between atoms: _2644  and  _2645
REMARK  779  A    between atoms: _2645  and  _2646
REMARK  780  A    between atoms: _2645  and  _2648
REMARK  781  A    between atoms: _2648  and  _2649
REMARK  782  A    between atoms: _2648  and  _2650
REMARK  783  A    between atoms: _2649  and  _2651
REMARK  784  A    between atoms: _2663  and  _2664
REMARK  785  A    between atoms: _2664  and  _2665
REMARK  786  A    between atoms: _2664  and  _2667
REMARK  787  A    between atoms: _2667  and  _2668
REMARK  788  A    between atoms: _2668  and  _2669
REMARK  789  A    between atoms: _2668  and  _2670
REMARK  790  A    between atoms: _2682  and  _2683
REMARK  791  A    between atoms: _2683  and  _2684
REMARK  792  A    between atoms: _2683  and  _2686
REMARK  793  A    between atoms: _2686  and  _2687
REMARK  794  A    between atoms: _2699  and  _2700
REMARK  795  A    between atoms: _2700  and  _2701
REMARK  796  A    between atoms: _2700  and  _2703
REMARK  797  A    between atoms: _2703  and  _2704
REMARK  798  A    between atoms: _2704  and  _2705
REMARK  799  A    between atoms: _2704  and  _2706
REMARK  800  A    between atoms: _2718  and  _2719
REMARK  801  A    between atoms: _2719  and  _2720
REMARK  802  A    between atoms: _2719  and  _2722
REMARK  803  A    between atoms: _2722  and  _2723
REMARK  804  A    between atoms: _2723  and  _2724
REMARK  805  A    between atoms: _2724  and  _2725
REMARK  806  A    between atoms: _2725  and  _2726
REMARK  807  A    between atoms: _2740  and  _2741
REMARK  808  A    between atoms: _2741  and  _2742
REMARK  809  A    between atoms: _2741  and  _2744
REMARK  810  A    between atoms: _2744  and  _2745
REMARK  811  A    between atoms: _2745  and  _2746
REMARK  812  A    between atoms: _2755  and  _2756
REMARK  813  A    between atoms: _2756  and  _2757
REMARK  814  A    between atoms: _2756  and  _2759
REMARK  815  A    between atoms: _2759  and  _2760
REMARK  816  A    between atoms: _2767  and  _2768
REMARK  817  A    between atoms: _2768  and  _2769
REMARK  818  A    between atoms: _2768  and  _2771
REMARK  819  A    between atoms: _2771  and  _2772
REMARK  820  A    between atoms: _2772  and  _2773
REMARK  821  A    between atoms: _2784  and  _2785
REMARK  822  A    between atoms: _2785  and  _2786
REMARK  823  A    between atoms: _2785  and  _2788
REMARK  824  A    between atoms: _2788  and  _2789
REMARK  825  A    between atoms: _2788  and  _2790
REMARK  826  A    between atoms: _2798  and  _2799
REMARK  827  A    between atoms: _2799  and  _2800
REMARK  828  A    between atoms: _2799  and  _2802
REMARK  829  A    between atoms: _2802  and  _2803
REMARK  830  A    between atoms: _2803  and  _2804
REMARK  831  A    between atoms: _2813  and  _2814
REMARK  832  A    between atoms: _2814  and  _2815
REMARK  833  A    between atoms: _2814  and  _2817
REMARK  834  A    between atoms: _2817  and  _2818
REMARK  835  A    between atoms: _2823  and  _2824
REMARK  836  A    between atoms: _2834  and  _2835
REMARK  837  A    between atoms: _2835  and  _2838
REMARK  838  A    between atoms: _2838  and  _2839
REMARK  839  A    between atoms: _2839  and  _2840
REMARK  840  A    between atoms: _2839  and  _2841
REMARK  841  A    between atoms: _2884  and  _2885
REMARK  842  A    between atoms: _2884  and  _2887
REMARK  843  A    between atoms: _2887  and  _2888
REMARK  844  A    between atoms: _2888  and  _2889
REMARK  845  A    between atoms: _2899  and  _2900
REMARK  846  A    between atoms: _2900  and  _2901
REMARK  847  A    between atoms: _2900  and  _2903
REMARK  848  A    between atoms: _2903  and  _2904
REMARK  849  A    between atoms: _2904  and  _2905
REMARK  850  A    between atoms: _2905  and  _2906
REMARK  851  A    between atoms: _2923  and  _2924
REMARK  852  A    between atoms: _2924  and  _2925
REMARK  853  A    between atoms: _2924  and  _2927
REMARK  854  A    between atoms: _2927  and  _2928
REMARK  855  A    between atoms: _2928  and  _2929
REMARK  856  A    between atoms: _2929  and  _2930
REMARK  857  A    between atoms: _2947  and  _2948
REMARK  858  A    between atoms: _2948  and  _2949
REMARK  859  A    between atoms: _2948  and  _2951
REMARK  860  A    between atoms: _2951  and  _2952
REMARK  861  A    between atoms: _2951  and  _2953
REMARK  862  A    between atoms: _2952  and  _2954
REMARK  863  A    between atoms: _2966  and  _2967
REMARK  864  A    between atoms: _2967  and  _2968
REMARK  865  A    between atoms: _2967  and  _2970
REMARK  866  A    between atoms: _2970  and  _2971
REMARK  867  A    between atoms: _2971  and  _2972
REMARK  868  A    between atoms: _2972  and  _2973
REMARK  869  A    between atoms: _2973  and  _2974
REMARK  870  A    between atoms: _2988  and  _2989
REMARK  871  A    between atoms: _2989  and  _2990
REMARK  872  A    between atoms: _2989  and  _2992
REMARK  873  A    between atoms: _2992  and  _2993
REMARK  874  A    between atoms: _2993  and  _2994
REMARK  875  A    between atoms: _3003  and  _3004
REMARK  876  A    between atoms: _3004  and  _3005
REMARK  877  A    between atoms: _3004  and  _3007
REMARK  878  A    between atoms: _3007  and  _3008
REMARK  879  A    between atoms: _3007  and  _3009
REMARK  880  A    between atoms: _3008  and  _3010
REMARK  881  A    between atoms: _3022  and  _3023
REMARK  882  A    between atoms: _3023  and  _3024
REMARK  883  A    between atoms: _3023  and  _3026
REMARK  884  A    between atoms: _3026  and  _3027
REMARK  885  A    between atoms: _3026  and  _3028
REMARK  886  A    between atoms: _3038  and  _3039
REMARK  887  A    between atoms: _3039  and  _3040
REMARK  888  A    between atoms: _3039  and  _3042
REMARK  889  A    between atoms: _3042  and  _3043
REMARK  890  A    between atoms: _3043  and  _3044
REMARK  891  A    between atoms: _3044  and  _3045
REMARK  892  A    between atoms: _3045  and  _3046
REMARK  893  A    between atoms: _3060  and  _3061
REMARK  894  A    between atoms: _3061  and  _3062
REMARK  895  A    between atoms: _3061  and  _3064
REMARK  896  A    between atoms: _3064  and  _3065
REMARK  897  A    between atoms: _3065  and  _3066
REMARK  898  A    between atoms: _3066  and  _3067
REMARK  899  A    between atoms: _3067  and  _3068
REMARK  900  A    between atoms: _3082  and  _3083
REMARK  901  A    between atoms: _3083  and  _3084
REMARK  902  A    between atoms: _3083  and  _3086
REMARK  903  A    between atoms: _3086  and  _3087
REMARK  904  A    between atoms: _3099  and  _3100
REMARK  905  A    between atoms: _3100  and  _3101
REMARK  906  A    between atoms: _3100  and  _3103
REMARK  907  A    between atoms: _3103  and  _3104
REMARK  908  A    between atoms: _3110  and  _3111
REMARK  909  A    between atoms: _3111  and  _3112
REMARK  910  A    between atoms: _3111  and  _3114
REMARK  911  A    between atoms: _3114  and  _3115
REMARK  912  A    between atoms: _3115  and  _3116
REMARK  913  A    between atoms: _3127  and  _3128
REMARK  914  A    between atoms: _3128  and  _3129
REMARK  915  A    between atoms: _3128  and  _3131
REMARK  916  A    between atoms: _3131  and  _3132
REMARK  917  A    between atoms: _3147  and  _3148
REMARK  918  A    between atoms: _3148  and  _3149
REMARK  919  A    between atoms: _3148  and  _3151
REMARK  920  A    between atoms: _3151  and  _3152
REMARK  921  A    between atoms: _3151  and  _3153
REMARK  922  A    between atoms: _3152  and  _3154
REMARK  923  A    between atoms: _3166  and  _3167
REMARK  924  A    between atoms: _3167  and  _3168
REMARK  925  A    between atoms: _3173  and  _3174
REMARK  926  A    between atoms: _3174  and  _3175
REMARK  927  A    between atoms: _3174  and  _3177
REMARK  928  A    between atoms: _3177  and  _3178
REMARK  929  A    between atoms: _3183  and  _3184
REMARK  930  A    between atoms: _3195  and  _3196
REMARK  931  A    between atoms: _3208  and  _3209
REMARK  932  A    between atoms: _3209  and  _3210
REMARK  933  A    between atoms: _3209  and  _3212
REMARK  934  A    between atoms: _3212  and  _3213
REMARK  935  A    between atoms: _3212  and  _3214
REMARK  936  A    between atoms: _3213  and  _3215
REMARK  937  A    between atoms: _3227  and  _3228
REMARK  938  A    between atoms: _3228  and  _3229
REMARK  939  A    between atoms: _3228  and  _3231
REMARK  940  A    between atoms: _3231  and  _3232
REMARK  941  A    between atoms: _3231  and  _3233
REMARK  942  A    between atoms: _3241  and  _3242
REMARK  943  A    between atoms: _3242  and  _3243
REMARK  944  A    between atoms: _3242  and  _3245
REMARK  945  A    between atoms: _3245  and  _3246
REMARK  946  A    between atoms: _3246  and  _3247
REMARK  947  A    between atoms: _3246  and  _3248
REMARK  948  A    between atoms: _3260  and  _3261
REMARK  949  A    between atoms: _3261  and  _3262
REMARK  950  A    between atoms: _3261  and  _3264
REMARK  951  A    between atoms: _3264  and  _3265
REMARK  952  A    between atoms: _3280  and  _3281
REMARK  953  A    between atoms: _3281  and  _3282
REMARK  954  A    between atoms: _3281  and  _3284
REMARK  955  A    between atoms: _3284  and  _3285
REMARK  956  A    between atoms: _3284  and  _3286
REMARK  957  A    between atoms: _3296  and  _3297
REMARK  958  A    between atoms: _3297  and  _3298
REMARK  959  A    between atoms: _3297  and  _3300
REMARK  960  A    between atoms: _3300  and  _3301
REMARK  961  A    between atoms: _3301  and  _3302
REMARK                            x       y       z     vdW  Elec       q    Type
REMARK                         _______ _______ _______ _____ _____    ______ ____
ROOT
ATOM      1  C   UNL     1      12.190  34.813  18.439  0.00  0.00    +0.000 C 
ENDROOT
TORSDOF 0
REMARK  Name = /Users/mlugowska/PhD/ML_residence_time_prediction/protein_files/5J20_protein.pdb
REMARK  961 active torsions:
REMARK  status: ('A' for Active; 'I' for Inactive)
REMARK    1  A    between atoms: _2  and  _3
REMARK    2  A    between atoms: _2  and  _5
REMARK    3  A    between atoms: _10  and  _11
REMARK    4  A    between atoms: _11  and  _12
REMARK    5  A    between atoms: _11  and  _14
REMARK    6  A    between atoms: _14  and  _15
REMARK    7  A    between atoms: _14  and  _16
REMARK    8  A    between atoms: _26  and  _27
REMARK    9  A    between atoms: _27  and  _28
REMARK   10  A    between atoms: _27  and  _30
REMARK   11  A    between atoms: _30  and  _31
REMARK   12  A    between atoms: _31  and  _32
REMARK   13  A    between atoms: _41  and  _42
REMARK   14  A    between atoms: _42  and  _43
REMARK   15  A    between atoms: _42  and  _45
REMARK   16  A    between atoms: _45  and  _46
REMARK   17  A    between atoms: _45  and  _47
REMARK   18  A    between atoms: _55  and  _56
REMARK   19  A    between atoms: _56  and  _57
REMARK   20  A    between atoms: _56  and  _59
REMARK   21  A    between atoms: _59  and  _60
REMARK   22  A    between atoms: _75  and  _76
REMARK   23  A    between atoms: _76  and  _77
REMARK   24  A    between atoms: _76  and  _79
REMARK   25  A    between atoms: _85  and  _86
REMARK   26  A    between atoms: _86  and  _87
REMARK   27  A    between atoms: _86  and  _89
REMARK   28  A    between atoms: _89  and  _90
REMARK   29  A    between atoms: _105  and  _106
REMARK   30  A    between atoms: _106  and  _107
REMARK   31  A    between atoms: _106  and  _109
REMARK   32  A    between atoms: _109  and  _110
REMARK   33  A    between atoms: _110  and  _111
REMARK   34  A    between atoms: _122  and  _123
REMARK   35  A    between atoms: _123  and  _124
REMARK   36  A    between atoms: _123  and  _126
REMARK   37  A    between atoms: _132  and  _133
REMARK   38  A    between atoms: _133  and  _134
REMARK   39  A    between atoms: _133  and  _136
REMARK   40  A    between atoms: _136  and  _137
REMARK   41  A    between atoms: _137  and  _138
REMARK   42  A    between atoms: _147  and  _148
REMARK   43  A    between atoms: _148  and  _149
REMARK   44  A    between atoms: _148  and  _151
REMARK   45  A    between atoms: _151  and  _152
REMARK   46  A    between atoms: _151  and  _153
REMARK   47  A    between atoms: _152  and  _154
REMARK   48  A    between atoms: _166  and  _167
REMARK   49  A    between atoms: _167  and  _168
REMARK   50  A    between atoms: _167  and  _170
REMARK   51  A    between atoms: _176  and  _177
REMARK   52  A    between atoms: _177  and  _178
REMARK   53  A    between atoms: _177  and  _180
REMARK   54  A    between atoms: _180  and  _181
REMARK   55  A    between atoms: _181  and  _182
REMARK   56  A    between atoms: _193  and  _194
REMARK   57  A    between atoms: _194  and  _195
REMARK   58  A    between atoms: _194  and  _197
REMARK   59  A    between atoms: _197  and  _198
REMARK   60  A    between atoms: _198  and  _199
REMARK   61  A    between atoms: _198  and  _200
REMARK   62  A    between atoms: _212  and  _213
REMARK   63  A    between atoms: _213  and  _214
REMARK   64  A    between atoms: _213  and  _216
REMARK   65  A    between atoms: _216  and  _217
REMARK   66  A    between atoms: _217  and  _218
REMARK   67  A    between atoms: _218  and  _219
REMARK   68  A    between atoms: _229  and  _230
REMARK   69  A    between atoms: _230  and  _231
REMARK   70  A    between atoms: _230  and  _233
REMARK   71  A    between atoms: _233  and  _234
REMARK   72  A    between atoms: _240  and  _241
REMARK   73  A    between atoms: _241  and  _242
REMARK   74  A    between atoms: _241  and  _244
REMARK   75  A    between atoms: _244  and  _245
REMARK   76  A    between atoms: _245  and  _246
REMARK   77  A    between atoms: _245  and  _247
REMARK   78  A    between atoms: _259  and  _260
REMARK   79  A    between atoms: _260  and  _261
REMARK   80  A    between atoms: _260  and  _263
REMARK   81  A    between atoms: _263  and  _264
REMARK   82  A    between atoms: _263  and  _265
REMARK   83  A    between atoms: _264  and  _266
REMARK   84  A    between atoms: _278  and  _279
REMARK   85  A    between atoms: _279  and  _280
REMARK   86  A    between atoms: _279  and  _282
REMARK   87  A    between atoms: _282  and  _283
REMARK   88  A    between atoms: _282  and  _284
REMARK   89  A    between atoms: _283  and  _285
REMARK   90  A    between atoms: _297  and  _298
REMARK   91  A    between atoms: _298  and  _299
REMARK   92  A    between atoms: _298  and  _301
REMARK   93  A    between atoms: _301  and  _302
REMARK   94  A    between atoms: _311  and  _312
REMARK   95  A    between atoms: _312  and  _313
REMARK   96  A    between atoms: _312  and  _315
REMARK   97  A    between atoms: _315  and  _316
REMARK   98  A    between atoms: _315  and  _317
REMARK   99  A    between atoms: _325  and  _326
REMARK  100  A    between atoms: _326  and  _327
REMARK  101  A    between atoms: _326  and  _329
REMARK  102  A    between atoms: _329  and  _330
REMARK  103  A    between atoms: _345  and  _346
REMARK  104  A    between atoms: _346  and  _347
REMARK  105  A    between atoms: _346  and  _349
REMARK  106  A    between atoms: _349  and  _350
REMARK  107  A    between atoms: _355  and  _356
REMARK  108  A    between atoms: _366  and  _367
REMARK  109  A    between atoms: _367  and  _368
REMARK  110  A    between atoms: _367  and  _370
REMARK  111  A    between atoms: _370  and  _371
REMARK  112  A    between atoms: _377  and  _378
REMARK  113  A    between atoms: _378  and  _379
REMARK  114  A    between atoms: _378  and  _381
REMARK  115  A    between atoms: _381  and  _382
REMARK  116  A    between atoms: _391  and  _392
REMARK  117  A    between atoms: _392  and  _393
REMARK  118  A    between atoms: _392  and  _395
REMARK  119  A    between atoms: _395  and  _396
REMARK  120  A    between atoms: _396  and  _397
REMARK  121  A    between atoms: _397  and  _398
REMARK  122  A    between atoms: _398  and  _399
REMARK  123  A    between atoms: _413  and  _414
REMARK  124  A    between atoms: _414  and  _415
REMARK  125  A    between atoms: _414  and  _417
REMARK  126  A    between atoms: _417  and  _418
REMARK  127  A    between atoms: _418  and  _419
REMARK  128  A    between atoms: _428  and  _429
REMARK  129  A    between atoms: _429  and  _430
REMARK  130  A    between atoms: _429  and  _432
REMARK  131  A    between atoms: _432  and  _433
REMARK  132  A    between atoms: _432  and  _434
REMARK  133  A    between atoms: _433  and  _435
REMARK  134  A    between atoms: _447  and  _448
REMARK  135  A    between atoms: _448  and  _449
REMARK  136  A    between atoms: _448  and  _451
REMARK  137  A    between atoms: _451  and  _452
REMARK  138  A    between atoms: _467  and  _468
REMARK  139  A    between atoms: _468  and  _469
REMARK  140  A    between atoms: _468  and  _471
REMARK  141  A    between atoms: _471  and  _472
REMARK  142  A    between atoms: _472  and  _473
REMARK  143  A    between atoms: _472  and  _474
REMARK  144  A    between atoms: _486  and  _487
REMARK  145  A    between atoms: _487  and  _488
REMARK  146  A    between atoms: _487  and  _490
REMARK  147  A    between atoms: _490  and  _491
REMARK  148  A    between atoms: _491  and  _492
REMARK  149  A    between atoms: _492  and  _493
REMARK  150  A    between atoms: _510  and  _511
REMARK  151  A    between atoms: _511  and  _512
REMARK  152  A    between atoms: _511  and  _514
REMARK  153  A    between atoms: _514  and  _515
REMARK  154  A    between atoms: _515  and  _516
REMARK  155  A    between atoms: _525  and  _526
REMARK  156  A    between atoms: _526  and  _527
REMARK  157  A    between atoms: _526  and  _529
REMARK  158  A    between atoms: _529  and  _530
REMARK  159  A    between atoms: _530  and  _531
REMARK  160  A    between atoms: _530  and  _532
REMARK  161  A    between atoms: _544  and  _545
REMARK  162  A    between atoms: _545  and  _546
REMARK  163  A    between atoms: _545  and  _548
REMARK  164  A    between atoms: _548  and  _549
REMARK  165  A    between atoms: _548  and  _550
REMARK  166  A    between atoms: _549  and  _551
REMARK  167  A    between atoms: _563  and  _564
REMARK  168  A    between atoms: _564  and  _565
REMARK  169  A    between atoms: _564  and  _567
REMARK  170  A    between atoms: _567  and  _568
REMARK  171  A    between atoms: _574  and  _575
REMARK  172  A    between atoms: _575  and  _576
REMARK  173  A    between atoms: _575  and  _578
REMARK  174  A    between atoms: _578  and  _579
REMARK  175  A    between atoms: _588  and  _589
REMARK  176  A    between atoms: _589  and  _590
REMARK  177  A    between atoms: _589  and  _592
REMARK  178  A    between atoms: _592  and  _593
REMARK  179  A    between atoms: _599  and  _600
REMARK  180  A    between atoms: _600  and  _601
REMARK  181  A    between atoms: _600  and  _603
REMARK  182  A    between atoms: _603  and  _604
REMARK  183  A    between atoms: _610  and  _611
REMARK  184  A    between atoms: _611  and  _612
REMARK  185  A    between atoms: _611  and  _614
REMARK  186  A    between atoms: _614  and  _615
REMARK  187  A    between atoms: _622  and  _623
REMARK  188  A    between atoms: _623  and  _624
REMARK  189  A    between atoms: _623  and  _626
REMARK  190  A    between atoms: _632  and  _633
REMARK  191  A    between atoms: _633  and  _634
REMARK  192  A    between atoms: _633  and  _636
REMARK  193  A    between atoms: _636  and  _637
REMARK  194  A    between atoms: _637  and  _638
REMARK  195  A    between atoms: _637  and  _639
REMARK  196  A    between atoms: _651  and  _652
REMARK  197  A    between atoms: _652  and  _653
REMARK  198  A    between atoms: _652  and  _655
REMARK  199  A    between atoms: _655  and  _656
REMARK  200  A    between atoms: _663  and  _664
REMARK  201  A    between atoms: _664  and  _665
REMARK  202  A    between atoms: _664  and  _667
REMARK  203  A    between atoms: _667  and  _668
REMARK  204  A    between atoms: _668  and  _669
REMARK  205  A    between atoms: _669  and  _670
REMARK  206  A    between atoms: _670  and  _671
REMARK  207  A    between atoms: _685  and  _686
REMARK  208  A    between atoms: _686  and  _687
REMARK  209  A    between atoms: _686  and  _689
REMARK  210  A    between atoms: _689  and  _690
REMARK  211  A    between atoms: _689  and  _691
REMARK  212  A    between atoms: _690  and  _692
REMARK  213  A    between atoms: _704  and  _705
REMARK  214  A    between atoms: _705  and  _706
REMARK  215  A    between atoms: _705  and  _708
REMARK  216  A    between atoms: _708  and  _709
REMARK  217  A    between atoms: _709  and  _710
REMARK  218  A    between atoms: _710  and  _711
REMARK  219  A    between atoms: _728  and  _729
REMARK  220  A    between atoms: _729  and  _730
REMARK  221  A    between atoms: _729  and  _732
REMARK  222  A    between atoms: _732  and  _733
REMARK  223  A    between atoms: _738  and  _739
REMARK  224  A    between atoms: _749  and  _750
REMARK  225  A    between atoms: _750  and  _751
REMARK  226  A    between atoms: _750  and  _753
REMARK  227  A    between atoms: _753  and  _754
REMARK  228  A    between atoms: _754  and  _755
REMARK  229  A    between atoms: _764  and  _765
REMARK  230  A    between atoms: _765  and  _766
REMARK  231  A    between atoms: _765  and  _768
REMARK  232  A    between atoms: _772  and  _773
REMARK  233  A    between atoms: _773  and  _774
REMARK  234  A    between atoms: _773  and  _776
REMARK  235  A    between atoms: _776  and  _777
REMARK  236  A    between atoms: _777  and  _778
REMARK  237  A    between atoms: _777  and  _779
REMARK  238  A    between atoms: _791  and  _792
REMARK  239  A    between atoms: _792  and  _793
REMARK  240  A    between atoms: _792  and  _795
REMARK  241  A    between atoms: _795  and  _796
REMARK  242  A    between atoms: _795  and  _797
REMARK  243  A    between atoms: _805  and  _806
REMARK  244  A    between atoms: _806  and  _807
REMARK  245  A    between atoms: _806  and  _809
REMARK  246  A    between atoms: _809  and  _810
REMARK  247  A    between atoms: _818  and  _819
REMARK  248  A    between atoms: _831  and  _832
REMARK  249  A    between atoms: _832  and  _833
REMARK  250  A    between atoms: _832  and  _835
REMARK  251  A    between atoms: _835  and  _836
REMARK  252  A    between atoms: _842  and  _843
REMARK  253  A    between atoms: _843  and  _844
REMARK  254  A    between atoms: _843  and  _846
REMARK  255  A    between atoms: _846  and  _847
REMARK  256  A    between atoms: _847  and  _848
REMARK  257  A    between atoms: _848  and  _849
REMARK  258  A    between atoms: _849  and  _850
REMARK  259  A    between atoms: _864  and  _865
REMARK  260  A    between atoms: _865  and  _866
REMARK  261  A    between atoms: _865  and  _868
REMARK  262  A    between atoms: _868  and  _869
REMARK  263  A    between atoms: _869  and  _870
REMARK  264  A    between atoms: _869  and  _871
REMARK  265  A    between atoms: _883  and  _884
REMARK  266  A    between atoms: _884  and  _885
REMARK  267  A    between atoms: _884  and  _887
REMARK  268  A    between atoms: _887  and  _888
REMARK  269  A    between atoms: _895  and  _896
REMARK  270  A    between atoms: _896  and  _897
REMARK  271  A    between atoms: _896  and  _899
REMARK  272  A    between atoms: _899  and  _900
REMARK  273  A    between atoms: _906  and  _907
REMARK  274  A    between atoms: _907  and  _908
REMARK  275  A    between atoms: _913  and  _914
REMARK  276  A    between atoms: _914  and  _915
REMARK  277  A    between atoms: _914  and  _917
REMARK  278  A    between atoms: _917  and  _918
REMARK  279  A    between atoms: _918  and  _919
REMARK  280  A    between atoms: _919  and  _920
REMARK  281  A    between atoms: _920  and  _921
REMARK  282  A    between atoms: _935  and  _936
REMARK  283  A    between atoms: _936  and  _937
REMARK  284  A    between atoms: _936  and  _939
REMARK  285  A    between atoms: _939  and  _940
REMARK  286  A    between atoms: _940  and  _941
REMARK  287  A    between atoms: _950  and  _951
REMARK  288  A    between atoms: _951  and  _952
REMARK  289  A    between atoms: _951  and  _954
REMARK  290  A    between atoms: _954  and  _955
REMARK  291  A    between atoms: _955  and  _956
REMARK  292  A    between atoms: _955  and  _957
REMARK  293  A    between atoms: _969  and  _970
REMARK  294  A    between atoms: _970  and  _971
REMARK  295  A    between atoms: _970  and  _973
REMARK  296  A    between atoms: _973  and  _974
REMARK  297  A    between atoms: _986  and  _987
REMARK  298  A    between atoms: _987  and  _988
REMARK  299  A    between atoms: _987  and  _990
REMARK  300  A    between atoms: _990  and  _991
REMARK  301  A    between atoms: _990  and  _992
REMARK  302  A    between atoms: _991  and  _993
REMARK  303  A    between atoms: _1005  and  _1006
REMARK  304  A    between atoms: _1006  and  _1007
REMARK  305  A    between atoms: _1006  and  _1009
REMARK  306  A    between atoms: _1009  and  _1010
REMARK  307  A    between atoms: _1019  and  _1020
REMARK  308  A    between atoms: _1020  and  _1021
REMARK  309  A    between atoms: _1020  and  _1023
REMARK  310  A    between atoms: _1023  and  _1024
REMARK  311  A    between atoms: _1024  and  _1025
REMARK  312  A    between atoms: _1024  and  _1026
REMARK  313  A    between atoms: _1038  and  _1039
REMARK  314  A    between atoms: _1039  and  _1040
REMARK  315  A    between atoms: _1039  and  _1042
REMARK  316  A    between atoms: _1042  and  _1043
REMARK  317  A    between atoms: _1042  and  _1044
REMARK  318  A    between atoms: _1043  and  _1045
REMARK  319  A    between atoms: _1058  and  _1059
REMARK  320  A    between atoms: _1071  and  _1072
REMARK  321  A    between atoms: _1072  and  _1073
REMARK  322  A    between atoms: _1072  and  _1075
REMARK  323  A    between atoms: _1075  and  _1076
REMARK  324  A    between atoms: _1085  and  _1086
REMARK  325  A    between atoms: _1086  and  _1087
REMARK  326  A    between atoms: _1086  and  _1089
REMARK  327  A    between atoms: _1089  and  _1090
REMARK  328  A    between atoms: _1090  and  _1091
REMARK  329  A    between atoms: _1091  and  _1092
REMARK  330  A    between atoms: _1092  and  _1093
REMARK  331  A    between atoms: _1107  and  _1108
REMARK  332  A    between atoms: _1108  and  _1109
REMARK  333  A    between atoms: _1108  and  _1111
REMARK  334  A    between atoms: _1111  and  _1112
REMARK  335  A    between atoms: _1112  and  _1113
REMARK  336  A    between atoms: _1124  and  _1125
REMARK  337  A    between atoms: _1125  and  _1126
REMARK  338  A    between atoms: _1125  and  _1128
REMARK  339  A    between atoms: _1128  and  _1129
REMARK  340  A    between atoms: _1136  and  _1137
REMARK  341  A    between atoms: _1137  and  _1138
REMARK  342  A    between atoms: _1137  and  _1140
REMARK  343  A    between atoms: _1140  and  _1141
REMARK  344  A    between atoms: _1141  and  _1142
REMARK  345  A    between atoms: _1142  and  _1143
REMARK  346  A    between atoms: _1160  and  _1161
REMARK  347  A    between atoms: _1161  and  _1162
REMARK  348  A    between atoms: _1161  and  _1164
REMARK  349  A    between atoms: _1164  and  _1165
REMARK  350  A    between atoms: _1164  and  _1166
REMARK  351  A    between atoms: _1174  and  _1175
REMARK  352  A    between atoms: _1175  and  _1176
REMARK  353  A    between atoms: _1175  and  _1178
REMARK  354  A    between atoms: _1178  and  _1179
REMARK  355  A    between atoms: _1179  and  _1180
REMARK  356  A    between atoms: _1179  and  _1181
REMARK  357  A    between atoms: _1193  and  _1194
REMARK  358  A    between atoms: _1194  and  _1195
REMARK  359  A    between atoms: _1194  and  _1197
REMARK  360  A    between atoms: _1197  and  _1198
REMARK  361  A    between atoms: _1197  and  _1199
REMARK  362  A    between atoms: _1207  and  _1208
REMARK  363  A    between atoms: _1208  and  _1209
REMARK  364  A    between atoms: _1208  and  _1211
REMARK  365  A    between atoms: _1211  and  _1212
REMARK  366  A    between atoms: _1211  and  _1213
REMARK  367  A    between atoms: _1212  and  _1214
REMARK  368  A    between atoms: _1226  and  _1227
REMARK  369  A    between atoms: _1227  and  _1228
REMARK  370  A    between atoms: _1227  and  _1230
REMARK  371  A    between atoms: _1230  and  _1231
REMARK  372  A    between atoms: _1230  and  _1232
REMARK  373  A    between atoms: _1242  and  _1243
REMARK  374  A    between atoms: _1243  and  _1244
REMARK  375  A    between atoms: _1243  and  _1246
REMARK  376  A    between atoms: _1246  and  _1247
REMARK  377  A    between atoms: _1254  and  _1255
REMARK  378  A    between atoms: _1255  and  _1256
REMARK  379  A    between atoms: _1255  and  _1258
REMARK  380  A    between atoms: _1258  and  _1259
REMARK  381  A    between atoms: _1258  and  _1260
REMARK  382  A    between atoms: _1268  and  _1269
REMARK  383  A    between atoms: _1269  and  _1270
REMARK  384  A    between atoms: _1275  and  _1276
REMARK  385  A    between atoms: _1276  and  _1277
REMARK  386  A    between atoms: _1276  and  _1279
REMARK  387  A    between atoms: _1279  and  _1280
REMARK  388  A    between atoms: _1279  and  _1281
REMARK  389  A    between atoms: _1280  and  _1282
REMARK  390  A    between atoms: _1294  and  _1295
REMARK  391  A    between atoms: _1295  and  _1296
REMARK  392  A    between atoms: _1301  and  _1302
REMARK  393  A    between atoms: _1302  and  _1303
REMARK  394  A    between atoms: _1302  and  _1305
REMARK  395  A    between atoms: _1305  and  _1306
REMARK  396  A    between atoms: _1306  and  _1307
REMARK  397  A    between atoms: _1307  and  _1308
REMARK  398  A    between atoms: _1318  and  _1319
REMARK  399  A    between atoms: _1319  and  _1320
REMARK  400  A    between atoms: _1319  and  _1322
REMARK  401  A    between atoms: _1322  and  _1323
REMARK  402  A    between atoms: _1322  and  _1324
REMARK  403  A    between atoms: _1332  and  _1333
REMARK  404  A    between atoms: _1333  and  _1334
REMARK  405  A    between atoms: _1333  and  _1336
REMARK  406  A    between atoms: _1336  and  _1337
REMARK  407  A    between atoms: _1337  and  _1338
REMARK  408  A    between atoms: _1338  and  _1339
REMARK  409  A    between atoms: _1339  and  _1340
REMARK  410  A    between atoms: _1354  and  _1355
REMARK  411  A    between atoms: _1355  and  _1356
REMARK  412  A    between atoms: _1355  and  _1358
REMARK  413  A    between atoms: _1364  and  _1365
REMARK  414  A    between atoms: _1365  and  _1366
REMARK  415  A    between atoms: _1365  and  _1368
REMARK  416  A    between atoms: _1368  and  _1369
REMARK  417  A    between atoms: _1376  and  _1377
REMARK  418  A    between atoms: _1377  and  _1378
REMARK  419  A    between atoms: _1377  and  _1380
REMARK  420  A    between atoms: _1380  and  _1381
REMARK  421  A    between atoms: _1381  and  _1382
REMARK  422  A    between atoms: _1381  and  _1383
REMARK  423  A    between atoms: _1395  and  _1396
REMARK  424  A    between atoms: _1396  and  _1399
REMARK  425  A    between atoms: _1399  and  _1400
REMARK  426  A    between atoms: _1399  and  _1401
REMARK  427  A    between atoms: _1400  and  _1402
REMARK  428  A    between atoms: _1422  and  _1425
REMARK  429  A    between atoms: _1424  and  _1428
REMARK  430  A    between atoms: _1425  and  _1427
REMARK  431  A    between atoms: _1443  and  _1444
REMARK  432  A    between atoms: _1443  and  _1446
REMARK  433  A    between atoms: _1446  and  _1447
REMARK  434  A    between atoms: _1457  and  _1458
REMARK  435  A    between atoms: _1458  and  _1459
REMARK  436  A    between atoms: _1458  and  _1461
REMARK  437  A    between atoms: _1461  and  _1462
REMARK  438  A    between atoms: _1462  and  _1463
REMARK  439  A    between atoms: _1462  and  _1464
REMARK  440  A    between atoms: _1476  and  _1477
REMARK  441  A    between atoms: _1477  and  _1478
REMARK  442  A    between atoms: _1483  and  _1484
REMARK  443  A    between atoms: _1484  and  _1485
REMARK  444  A    between atoms: _1484  and  _1487
REMARK  445  A    between atoms: _1487  and  _1488
REMARK  446  A    between atoms: _1487  and  _1489
REMARK  447  A    between atoms: _1497  and  _1498
REMARK  448  A    between atoms: _1498  and  _1499
REMARK  449  A    between atoms: _1498  and  _1501
REMARK  450  A    between atoms: _1501  and  _1502
REMARK  451  A    between atoms: _1501  and  _1503
REMARK  452  A    between atoms: _1502  and  _1504
REMARK  453  A    between atoms: _1516  and  _1517
REMARK  454  A    between atoms: _1517  and  _1518
REMARK  455  A    between atoms: _1517  and  _1520
REMARK  456  A    between atoms: _1526  and  _1527
REMARK  457  A    between atoms: _1527  and  _1528
REMARK  458  A    between atoms: _1527  and  _1530
REMARK  459  A    between atoms: _1530  and  _1531
REMARK  460  A    between atoms: _1531  and  _1532
REMARK  461  A    between atoms: _1532  and  _1533
REMARK  462  A    between atoms: _1533  and  _1534
REMARK  463  A    between atoms: _1548  and  _1549
REMARK  464  A    between atoms: _1549  and  _1550
REMARK  465  A    between atoms: _1549  and  _1552
REMARK  466  A    between atoms: _1552  and  _1553
REMARK  467  A    between atoms: _1559  and  _1560
REMARK  468  A    between atoms: _1560  and  _1561
REMARK  469  A    between atoms: _1566  and  _1567
REMARK  470  A    between atoms: _1567  and  _1568
REMARK  471  A    between atoms: _1567  and  _1570
REMARK  472  A    between atoms: _1570  and  _1571
REMARK  473  A    between atoms: _1570  and  _1572
REMARK  474  A    between atoms: _1580  and  _1581
REMARK  475  A    between atoms: _1581  and  _1582
REMARK  476  A    between atoms: _1581  and  _1584
REMARK  477  A    between atoms: _1584  and  _1585
REMARK  478  A    between atoms: _1585  and  _1586
REMARK  479  A    between atoms: _1586  and  _1587
REMARK  480  A    between atoms: _1587  and  _1588
REMARK  481  A    between atoms: _1602  and  _1603
REMARK  482  A    between atoms: _1603  and  _1604
REMARK  483  A    between atoms: _1603  and  _1606
REMARK  484  A    between atoms: _1612  and  _1613
REMARK  485  A    between atoms: _1613  and  _1614
REMARK  486  A    between atoms: _1613  and  _1616
REMARK  487  A    between atoms: _1616  and  _1617
REMARK  488  A    between atoms: _1632  and  _1633
REMARK  489  A    between atoms: _1633  and  _1634
REMARK  490  A    between atoms: _1633  and  _1636
REMARK  491  A    between atoms: _1636  and  _1637
REMARK  492  A    between atoms: _1637  and  _1638
REMARK  493  A    between atoms: _1638  and  _1639
REMARK  494  A    between atoms: _1649  and  _1650
REMARK  495  A    between atoms: _1650  and  _1651
REMARK  496  A    between atoms: _1650  and  _1653
REMARK  497  A    between atoms: _1653  and  _1654
REMARK  498  A    between atoms: _1654  and  _1655
REMARK  499  A    between atoms: _1664  and  _1665
REMARK  500  A    between atoms: _1665  and  _1666
REMARK  501  A    between atoms: _1665  and  _1668
REMARK  502  A    between atoms: _1674  and  _1675
REMARK  503  A    between atoms: _1675  and  _1676
REMARK  504  A    between atoms: _1675  and  _1678
REMARK  505  A    between atoms: _1678  and  _1679
REMARK  506  A    between atoms: _1679  and  _1680
REMARK  507  A    between atoms: _1679  and  _1681
REMARK  508  A    between atoms: _1693  and  _1694
REMARK  509  A    between atoms: _1694  and  _1695
REMARK  510  A    between atoms: _1694  and  _1697
REMARK  511  A    between atoms: _1697  and  _1698
REMARK  512  A    between atoms: _1698  and  _1699
REMARK  513  A    between atoms: _1710  and  _1711
REMARK  514  A    between atoms: _1711  and  _1712
REMARK  515  A    between atoms: _1711  and  _1714
REMARK  516  A    between atoms: _1720  and  _1721
REMARK  517  A    between atoms: _1721  and  _1722
REMARK  518  A    between atoms: _1727  and  _1728
REMARK  519  A    between atoms: _1728  and  _1729
REMARK  520  A    between atoms: _1728  and  _1731
REMARK  521  A    between atoms: _1737  and  _1738
REMARK  522  A    between atoms: _1738  and  _1739
REMARK  523  A    between atoms: _1738  and  _1741
REMARK  524  A    between atoms: _1741  and  _1742
REMARK  525  A    between atoms: _1749  and  _1750
REMARK  526  A    between atoms: _1750  and  _1751
REMARK  527  A    between atoms: _1750  and  _1753
REMARK  528  A    between atoms: _1753  and  _1754
REMARK  529  A    between atoms: _1753  and  _1755
REMARK  530  A    between atoms: _1754  and  _1756
REMARK  531  A    between atoms: _1768  and  _1769
REMARK  532  A    between atoms: _1769  and  _1772
REMARK  533  A    between atoms: _1772  and  _1773
REMARK  534  A    between atoms: _1791  and  _1793
REMARK  535  A    between atoms: _1792  and  _1794
REMARK  536  A    between atoms: _1814  and  _1815
REMARK  537  A    between atoms: _1814  and  _1817
REMARK  538  A    between atoms: _1817  and  _1818
REMARK  539  A    between atoms: _1817  and  _1819
REMARK  540  A    between atoms: _1818  and  _1820
REMARK  541  A    between atoms: _1833  and  _1834
REMARK  542  A    between atoms: _1834  and  _1835
REMARK  543  A    between atoms: _1840  and  _1841
REMARK  544  A    between atoms: _1841  and  _1842
REMARK  545  A    between atoms: _1841  and  _1844
REMARK  546  A    between atoms: _1844  and  _1845
REMARK  547  A    between atoms: _1845  and  _1846
REMARK  548  A    between atoms: _1857  and  _1858
REMARK  549  A    between atoms: _1858  and  _1859
REMARK  550  A    between atoms: _1858  and  _1861
REMARK  551  A    between atoms: _1861  and  _1862
REMARK  552  A    between atoms: _1877  and  _1878
REMARK  553  A    between atoms: _1878  and  _1879
REMARK  554  A    between atoms: _1884  and  _1885
REMARK  555  A    between atoms: _1885  and  _1886
REMARK  556  A    between atoms: _1885  and  _1888
REMARK  557  A    between atoms: _1888  and  _1889
REMARK  558  A    between atoms: _1888  and  _1890
REMARK  559  A    between atoms: _1900  and  _1901
REMARK  560  A    between atoms: _1901  and  _1902
REMARK  561  A    between atoms: _1907  and  _1908
REMARK  562  A    between atoms: _1908  and  _1909
REMARK  563  A    between atoms: _1908  and  _1911
REMARK  564  A    between atoms: _1911  and  _1912
REMARK  565  A    between atoms: _1927  and  _1928
REMARK  566  A    between atoms: _1928  and  _1929
REMARK  567  A    between atoms: _1928  and  _1931
REMARK  568  A    between atoms: _1931  and  _1932
REMARK  569  A    between atoms: _1937  and  _1938
REMARK  570  A    between atoms: _1948  and  _1949
REMARK  571  A    between atoms: _1949  and  _1950
REMARK  572  A    between atoms: _1949  and  _1952
REMARK  573  A    between atoms: _1952  and  _1953
REMARK  574  A    between atoms: _1959  and  _1960
REMARK  575  A    between atoms: _1960  and  _1961
REMARK  576  A    between atoms: _1960  and  _1963
REMARK  577  A    between atoms: _1969  and  _1970
REMARK  578  A    between atoms: _1970  and  _1971
REMARK  579  A    between atoms: _1970  and  _1973
REMARK  580  A    between atoms: _1973  and  _1974
REMARK  581  A    between atoms: _1979  and  _1980
REMARK  582  A    between atoms: _1990  and  _1991
REMARK  583  A    between atoms: _1991  and  _1992
REMARK  584  A    between atoms: _1991  and  _1994
REMARK  585  A    between atoms: _1994  and  _1995
REMARK  586  A    between atoms: _1995  and  _1996
REMARK  587  A    between atoms: _1995  and  _1997
REMARK  588  A    between atoms: _2009  and  _2010
REMARK  589  A    between atoms: _2010  and  _2011
REMARK  590  A    between atoms: _2010  and  _2013
REMARK  591  A    between atoms: _2013  and  _2014
REMARK  592  A    between atoms: _2013  and  _2015
REMARK  593  A    between atoms: _2025  and  _2026
REMARK  594  A    between atoms: _2026  and  _2027
REMARK  595  A    between atoms: _2026  and  _2029
REMARK  596  A    between atoms: _2035  and  _2036
REMARK  597  A    between atoms: _2036  and  _2037
REMARK  598  A    between atoms: _2036  and  _2039
REMARK  599  A    between atoms: _2039  and  _2040
REMARK  600  A    between atoms: _2040  and  _2041
REMARK  601  A    between atoms: _2050  and  _2051
REMARK  602  A    between atoms: _2051  and  _2052
REMARK  603  A    between atoms: _2051  and  _2054
REMARK  604  A    between atoms: _2054  and  _2055
REMARK  605  A    between atoms: _2055  and  _2056
REMARK  606  A    between atoms: _2056  and  _2057
REMARK  607  A    between atoms: _2057  and  _2058
REMARK  608  A    between atoms: _2072  and  _2073
REMARK  609  A    between atoms: _2073  and  _2074
REMARK  610  A    between atoms: _2073  and  _2076
REMARK  611  A    between atoms: _2076  and  _2077
REMARK  612  A    between atoms: _2076  and  _2078
REMARK  613  A    between atoms: _2088  and  _2089
REMARK  614  A    between atoms: _2089  and  _2090
REMARK  615  A    between atoms: _2089  and  _2092
REMARK  616  A    between atoms: _2092  and  _2093
REMARK  617  A    between atoms: _2092  and  _2094
REMARK  618  A    between atoms: _2102  and  _2103
REMARK  619  A    between atoms: _2103  and  _2104
REMARK  620  A    between atoms: _2103  and  _2106
REMARK  621  A    between atoms: _2106  and  _2107
REMARK  622  A    between atoms: _2106  and  _2108
REMARK  623  A    between atoms: _2118  and  _2119
REMARK  624  A    between atoms: _2119  and  _2120
REMARK  625  A    between atoms: _2119  and  _2122
REMARK  626  A    between atoms: _2122  and  _2123
REMARK  627  A    between atoms: _2122  and  _2124
REMARK  628  A    between atoms: _2123  and  _2125
REMARK  629  A    between atoms: _2137  and  _2138
REMARK  630  A    between atoms: _2138  and  _2139
REMARK  631  A    between atoms: _2138  and  _2141
REMARK  632  A    between atoms: _2141  and  _2142
REMARK  633  A    between atoms: _2141  and  _2143
REMARK  634  A    between atoms: _2151  and  _2152
REMARK  635  A    between atoms: _2152  and  _2153
REMARK  636  A    between atoms: _2152  and  _2155
REMARK  637  A    between atoms: _2155  and  _2156
REMARK  638  A    between atoms: _2156  and  _2157
REMARK  639  A    between atoms: _2157  and  _2158
REMARK  640  A    between atoms: _2158  and  _2159
REMARK  641  A    between atoms: _2173  and  _2174
REMARK  642  A    between atoms: _2174  and  _2175
REMARK  643  A    between atoms: _2174  and  _2177
REMARK  644  A    between atoms: _2177  and  _2178
REMARK  645  A    between atoms: _2190  and  _2191
REMARK  646  A    between atoms: _2191  and  _2192
REMARK  647  A    between atoms: _2191  and  _2194
REMARK  648  A    between atoms: _2194  and  _2195
REMARK  649  A    between atoms: _2204  and  _2205
REMARK  650  A    between atoms: _2205  and  _2206
REMARK  651  A    between atoms: _2205  and  _2208
REMARK  652  A    between atoms: _2208  and  _2209
REMARK  653  A    between atoms: _2216  and  _2217
REMARK  654  A    between atoms: _2217  and  _2218
REMARK  655  A    between atoms: _2217  and  _2220
REMARK  656  A    between atoms: _2220  and  _2221
REMARK  657  A    between atoms: _2228  and  _2229
REMARK  658  A    between atoms: _2229  and  _2230
REMARK  659  A    between atoms: _2229  and  _2232
REMARK  660  A    between atoms: _2232  and  _2233
REMARK  661  A    between atoms: _2233  and  _2234
REMARK  662  A    between atoms: _2243  and  _2244
REMARK  663  A    between atoms: _2244  and  _2245
REMARK  664  A    between atoms: _2244  and  _2247
REMARK  665  A    between atoms: _2247  and  _2248
REMARK  666  A    between atoms: _2248  and  _2249
REMARK  667  A    between atoms: _2260  and  _2261
REMARK  668  A    between atoms: _2261  and  _2262
REMARK  669  A    between atoms: _2261  and  _2264
REMARK  670  A    between atoms: _2264  and  _2265
REMARK  671  A    between atoms: _2270  and  _2271
REMARK  672  A    between atoms: _2281  and  _2282
REMARK  673  A    between atoms: _2282  and  _2283
REMARK  674  A    between atoms: _2282  and  _2285
REMARK  675  A    between atoms: _2291  and  _2292
REMARK  676  A    between atoms: _2292  and  _2293
REMARK  677  A    between atoms: _2292  and  _2295
REMARK  678  A    between atoms: _2295  and  _2296
REMARK  679  A    between atoms: _2315  and  _2316
REMARK  680  A    between atoms: _2316  and  _2317
REMARK  681  A    between atoms: _2316  and  _2319
REMARK  682  A    between atoms: _2319  and  _2320
REMARK  683  A    between atoms: _2320  and  _2321
REMARK  684  A    between atoms: _2330  and  _2331
REMARK  685  A    between atoms: _2331  and  _2332
REMARK  686  A    between atoms: _2331  and  _2334
REMARK  687  A    between atoms: _2334  and  _2335
REMARK  688  A    between atoms: _2341  and  _2342
REMARK  689  A    between atoms: _2342  and  _2343
REMARK  690  A    between atoms: _2342  and  _2345
REMARK  691  A    between atoms: _2345  and  _2346
REMARK  692  A    between atoms: _2352  and  _2353
REMARK  693  A    between atoms: _2353  and  _2354
REMARK  694  A    between atoms: _2353  and  _2356
REMARK  695  A    between atoms: _2362  and  _2363
REMARK  696  A    between atoms: _2363  and  _2364
REMARK  697  A    between atoms: _2369  and  _2370
REMARK  698  A    between atoms: _2370  and  _2371
REMARK  699  A    between atoms: _2376  and  _2377
REMARK  700  A    between atoms: _2377  and  _2378
REMARK  701  A    between atoms: _2377  and  _2380
REMARK  702  A    between atoms: _2380  and  _2381
REMARK  703  A    between atoms: _2387  and  _2388
REMARK  704  A    between atoms: _2388  and  _2389
REMARK  705  A    between atoms: _2388  and  _2391
REMARK  706  A    between atoms: _2391  and  _2392
REMARK  707  A    between atoms: _2407  and  _2408
REMARK  708  A    between atoms: _2408  and  _2409
REMARK  709  A    between atoms: _2408  and  _2411
REMARK  710  A    between atoms: _2411  and  _2412
REMARK  711  A    between atoms: _2411  and  _2413
REMARK  712  A    between atoms: _2421  and  _2422
REMARK  713  A    between atoms: _2422  and  _2423
REMARK  714  A    between atoms: _2422  and  _2425
REMARK  715  A    between atoms: _2425  and  _2426
REMARK  716  A    between atoms: _2425  and  _2427
REMARK  717  A    between atoms: _2437  and  _2438
REMARK  718  A    between atoms: _2438  and  _2439
REMARK  719  A    between atoms: _2438  and  _2441
REMARK  720  A    between atoms: _2441  and  _2442
REMARK  721  A    between atoms: _2442  and  _2443
REMARK  722  A    between atoms: _2443  and  _2444
REMARK  723  A    between atoms: _2461  and  _2462
REMARK  724  A    between atoms: _2462  and  _2463
REMARK  725  A    between atoms: _2462  and  _2465
REMARK  726  A    between atoms: _2465  and  _2466
REMARK  727  A    between atoms: _2465  and  _2467
REMARK  728  A    between atoms: _2475  and  _2476
REMARK  729  A    between atoms: _2476  and  _2477
REMARK  730  A    between atoms: _2476  and  _2479
REMARK  731  A    between atoms: _2479  and  _2480
REMARK  732  A    between atoms: _2487  and  _2488
REMARK  733  A    between atoms: _2488  and  _2489
REMARK  734  A    between atoms: _2488  and  _2491
REMARK  735  A    between atoms: _2491  and  _2492
REMARK  736  A    between atoms: _2491  and  _2493
REMARK  737  A    between atoms: _2501  and  _2502
REMARK  738  A    between atoms: _2502  and  _2503
REMARK  739  A    between atoms: _2508  and  _2509
REMARK  740  A    between atoms: _2509  and  _2510
REMARK  741  A    between atoms: _2509  and  _2512
REMARK  742  A    between atoms: _2512  and  _2513
REMARK  743  A    between atoms: _2513  and  _2514
REMARK  744  A    between atoms: _2524  and  _2525
REMARK  745  A    between atoms: _2537  and  _2538
REMARK  746  A    between atoms: _2538  and  _2539
REMARK  747  A    between atoms: _2538  and  _2541
REMARK  748  A    between atoms: _2541  and  _2542
REMARK  749  A    between atoms: _2542  and  _2543
REMARK  750  A    between atoms: _2543  and  _2544
REMARK  751  A    between atoms: _2554  and  _2555
REMARK  752  A    between atoms: _2555  and  _2556
REMARK  753  A    between atoms: _2561  and  _2562
REMARK  754  A    between atoms: _2562  and  _2563
REMARK  755  A    between atoms: _2562  and  _2565
REMARK  756  A    between atoms: _2565  and  _2566
REMARK  757  A    between atoms: _2566  and  _2567
REMARK  758  A    between atoms: _2567  and  _2568
REMARK  759  A    between atoms: _2585  and  _2586
REMARK  760  A    between atoms: _2586  and  _2587
REMARK  761  A    between atoms: _2592  and  _2593
REMARK  762  A    between atoms: _2593  and  _2594
REMARK  763  A    between atoms: _2593  and  _2596
REMARK  764  A    between atoms: _2596  and  _2597
REMARK  765  A    between atoms: _2596  and  _2598
REMARK  766  A    between atoms: _2606  and  _2607
REMARK  767  A    between atoms: _2607  and  _2608
REMARK  768  A    between atoms: _2607  and  _2610
REMARK  769  A    between atoms: _2610  and  _2611
REMARK  770  A    between atoms: _2611  and  _2612
REMARK  771  A    between atoms: _2612  and  _2613
REMARK  772  A    between atoms: _2613  and  _2614
REMARK  773  A    between atoms: _2628  and  _2629
REMARK  774  A    between atoms: _2629  and  _2630
REMARK  775  A    between atoms: _2629  and  _2632
REMARK  776  A    between atoms: _2632  and  _2633
REMARK  777  A    between atoms: _2632  and  _2634
REMARK  778  A    between atoms: _2644  and  _2645
REMARK  779  A    between atoms: _2645  and  _2646
REMARK  780  A    between atoms: _2645  and  _2648
REMARK  781  A    between atoms: _2648  and  _2649
REMARK  782  A    between atoms: _2648  and  _2650
REMARK  783  A    between atoms: _2649  and  _2651
REMARK  784  A    between atoms: _2663  and  _2664
REMARK  785  A    between atoms: _2664  and  _2665
REMARK  786  A    between atoms: _2664  and  _2667
REMARK  787  A    between atoms: _2667  and  _2668
REMARK  788  A    between atoms: _2668  and  _2669
REMARK  789  A    between atoms: _2668  and  _2670
REMARK  790  A    between atoms: _2682  and  _2683
REMARK  791  A    between atoms: _2683  and  _2684
REMARK  792  A    between atoms: _2683  and  _2686
REMARK  793  A    between atoms: _2686  and  _2687
REMARK  794  A    between atoms: _2699  and  _2700
REMARK  795  A    between atoms: _2700  and  _2701
REMARK  796  A    between atoms: _2700  and  _2703
REMARK  797  A    between atoms: _2703  and  _2704
REMARK  798  A    between atoms: _2704  and  _2705
REMARK  799  A    between atoms: _2704  and  _2706
REMARK  800  A    between atoms: _2718  and  _2719
REMARK  801  A    between atoms: _2719  and  _2720
REMARK  802  A    between atoms: _2719  and  _2722
REMARK  803  A    between atoms: _2722  and  _2723
REMARK  804  A    between atoms: _2723  and  _2724
REMARK  805  A    between atoms: _2724  and  _2725
REMARK  806  A    between atoms: _2725  and  _2726
REMARK  807  A    between atoms: _2740  and  _2741
REMARK  808  A    between atoms: _2741  and  _2742
REMARK  809  A    between atoms: _2741  and  _2744
REMARK  810  A    between atoms: _2744  and  _2745
REMARK  811  A    between atoms: _2745  and  _2746
REMARK  812  A    between atoms: _2755  and  _2756
REMARK  813  A    between atoms: _2756  and  _2757
REMARK  814  A    between atoms: _2756  and  _2759
REMARK  815  A    between atoms: _2759  and  _2760
REMARK  816  A    between atoms: _2767  and  _2768
REMARK  817  A    between atoms: _2768  and  _2769
REMARK  818  A    between atoms: _2768  and  _2771
REMARK  819  A    between atoms: _2771  and  _2772
REMARK  820  A    between atoms: _2772  and  _2773
REMARK  821  A    between atoms: _2784  and  _2785
REMARK  822  A    between atoms: _2785  and  _2786
REMARK  823  A    between atoms: _2785  and  _2788
REMARK  824  A    between atoms: _2788  and  _2789
REMARK  825  A    between atoms: _2788  and  _2790
REMARK  826  A    between atoms: _2798  and  _2799
REMARK  827  A    between atoms: _2799  and  _2800
REMARK  828  A    between atoms: _2799  and  _2802
REMARK  829  A    between atoms: _2802  and  _2803
REMARK  830  A    between atoms: _2803  and  _2804
REMARK  831  A    between atoms: _2813  and  _2814
REMARK  832  A    between atoms: _2814  and  _2815
REMARK  833  A    between atoms: _2814  and  _2817
REMARK  834  A    between atoms: _2817  and  _2818
REMARK  835  A    between atoms: _2823  and  _2824
REMARK  836  A    between atoms: _2834  and  _2835
REMARK  837  A    between atoms: _2835  and  _2838
REMARK  838  A    between atoms: _2838  and  _2839
REMARK  839  A    between atoms: _2839  and  _2840
REMARK  840  A    between atoms: _2839  and  _2841
REMARK  841  A    between atoms: _2884  and  _2885
REMARK  842  A    between atoms: _2884  and  _2887
REMARK  843  A    between atoms: _2887  and  _2888
REMARK  844  A    between atoms: _2888  and  _2889
REMARK  845  A    between atoms: _2899  and  _2900
REMARK  846  A    between atoms: _2900  and  _2901
REMARK  847  A    between atoms: _2900  and  _2903
REMARK  848  A    between atoms: _2903  and  _2904
REMARK  849  A    between atoms: _2904  and  _2905
REMARK  850  A    between atoms: _2905  and  _2906
REMARK  851  A    between atoms: _2923  and  _2924
REMARK  852  A    between atoms: _2924  and  _2925
REMARK  853  A    between atoms: _2924  and  _2927
REMARK  854  A    between atoms: _2927  and  _2928
REMARK  855  A    between atoms: _2928  and  _2929
REMARK  856  A    between atoms: _2929  and  _2930
REMARK  857  A    between atoms: _2947  and  _2948
REMARK  858  A    between atoms: _2948  and  _2949
REMARK  859  A    between atoms: _2948  and  _2951
REMARK  860  A    between atoms: _2951  and  _2952
REMARK  861  A    between atoms: _2951  and  _2953
REMARK  862  A    between atoms: _2952  and  _2954
REMARK  863  A    between atoms: _2966  and  _2967
REMARK  864  A    between atoms: _2967  and  _2968
REMARK  865  A    between atoms: _2967  and  _2970
REMARK  866  A    between atoms: _2970  and  _2971
REMARK  867  A    between atoms: _2971  and  _2972
REMARK  868  A    between atoms: _2972  and  _2973
REMARK  869  A    between atoms: _2973  and  _2974
REMARK  870  A    between atoms: _2988  and  _2989
REMARK  871  A    between atoms: _2989  and  _2990
REMARK  872  A    between atoms: _2989  and  _2992
REMARK  873  A    between atoms: _2992  and  _2993
REMARK  874  A    between atoms: _2993  and  _2994
REMARK  875  A    between atoms: _3003  and  _3004
REMARK  876  A    between atoms: _3004  and  _3005
REMARK  877  A    between atoms: _3004  and  _3007
REMARK  878  A    between atoms: _3007  and  _3008
REMARK  879  A    between atoms: _3007  and  _3009
REMARK  880  A    between atoms: _3008  and  _3010
REMARK  881  A    between atoms: _3022  and  _3023
REMARK  882  A    between atoms: _3023  and  _3024
REMARK  883  A    between atoms: _3023  and  _3026
REMARK  884  A    between atoms: _3026  and  _3027
REMARK  885  A    between atoms: _3026  and  _3028
REMARK  886  A    between atoms: _3038  and  _3039
REMARK  887  A    between atoms: _3039  and  _3040
REMARK  888  A    between atoms: _3039  and  _3042
REMARK  889  A    between atoms: _3042  and  _3043
REMARK  890  A    between atoms: _3043  and  _3044
REMARK  891  A    between atoms: _3044  and  _3045
REMARK  892  A    between atoms: _3045  and  _3046
REMARK  893  A    between atoms: _3060  and  _3061
REMARK  894  A    between atoms: _3061  and  _3062
REMARK  895  A    between atoms: _3061  and  _3064
REMARK  896  A    between atoms: _3064  and  _3065
REMARK  897  A    between atoms: _3065  and  _3066
REMARK  898  A    between atoms: _3066  and  _3067
REMARK  899  A    between atoms: _3067  and  _3068
REMARK  900  A    between atoms: _3082  and  _3083
REMARK  901  A    between atoms: _3083  and  _3084
REMARK  902  A    between atoms: _3083  and  _3086
REMARK  903  A    between atoms: _3086  and  _3087
REMARK  904  A    between atoms: _3099  and  _3100
REMARK  905  A    between atoms: _3100  and  _3101
REMARK  906  A    between atoms: _3100  and  _3103
REMARK  907  A    between atoms: _3103  and  _3104
REMARK  908  A    between atoms: _3110  and  _3111
REMARK  909  A    between atoms: _3111  and  _3112
REMARK  910  A    between atoms: _3111  and  _3114
REMARK  911  A    between atoms: _3114  and  _3115
REMARK  912  A    between atoms: _3115  and  _3116
REMARK  913  A    between atoms: _3127  and  _3128
REMARK  914  A    between atoms: _3128  and  _3129
REMARK  915  A    between atoms: _3128  and  _3131
REMARK  916  A    between atoms: _3131  and  _3132
REMARK  917  A    between atoms: _3147  and  _3148
REMARK  918  A    between atoms: _3148  and  _3149
REMARK  919  A    between atoms: _3148  and  _3151
REMARK  920  A    between atoms: _3151  and  _3152
REMARK  921  A    between atoms: _3151  and  _3153
REMARK  922  A    between atoms: _3152  and  _3154
REMARK  923  A    between atoms: _3166  and  _3167
REMARK  924  A    between atoms: _3167  and  _3168
REMARK  925  A    between atoms: _3173  and  _3174
REMARK  926  A    between atoms: _3174  and  _3175
REMARK  927  A    between atoms: _3174  and  _3177
REMARK  928  A    between atoms: _3177  and  _3178
REMARK  929  A    between atoms: _3183  and  _3184
REMARK  930  A    between atoms: _3195  and  _3196
REMARK  931  A    between atoms: _3208  and  _3209
REMARK  932  A    between atoms: _3209  and  _3210
REMARK  933  A    between atoms: _3209  and  _3212
REMARK  934  A    between atoms: _3212  and  _3213
REMARK  935  A    between atoms: _3212  and  _3214
REMARK  936  A    between atoms: _3213  and  _3215
REMARK  937  A    between atoms: _3227  and  _3228
REMARK  938  A    between atoms: _3228  and  _3229
REMARK  939  A    between atoms: _3228  and  _3231
REMARK  940  A    between atoms: _3231  and  _3232
REMARK  941  A    between atoms: _3231  and  _3233
REMARK  942  A    between atoms: _3241  and  _3242
REMARK  943  A    between atoms: _3242  and  _3243
REMARK  944  A    between atoms: _3242  and  _3245
REMARK  945  A    between atoms: _3245  and  _3246
REMARK  946  A    between atoms: _3246  and  _3247
REMARK  947  A    between atoms: _3246  and  _3248
REMARK  948  A    between atoms: _3260  and  _3261
REMARK  949  A    between atoms: _3261  and  _3262
REMARK  950  A    between atoms: _3261  and  _3264
REMARK  951  A    between atoms: _3264  and  _3265
REMARK  952  A    between atoms: _3280  and  _3281
REMARK  953  A    between atoms: _3281  and  _3282
REMARK  954  A    between atoms: _3281  and  _3284
REMARK  955  A    between atoms: _3284  and  _3285
REMARK  956  A    between atoms: _3284  and  _3286
REMARK  957  A    between atoms: _3296  and  _3297
REMARK  958  A    between atoms: _3297  and  _3298
REMARK  959  A    between atoms: _3297  and  _3300
REMARK  960  A    between atoms: _3300  and  _3301
REMARK  961  A    between atoms: _3301  and  _3302
REMARK                            x       y       z     vdW  Elec       q    Type
REMARK                         _______ _______ _______ _____ _____    ______ ____
ROOT
ATOM      1  C   UNL     1      12.185  34.844  18.485  0.00  0.00    +0.279 C 
ATOM      2  O   UNL     1      12.779  35.398  19.347  0.00  0.00    -0.279 OA
ENDROOT
TORSDOF 0
REMARK  Name = /Users/mlugowska/PhD/ML_residence_time_prediction/protein_files/5J20_protein.pdb
REMARK  961 active torsions:
REMARK  status: ('A' for Active; 'I' for Inactive)
REMARK    1  A    between atoms: _2  and  _3
REMARK    2  A    between atoms: _2  and  _5
REMARK    3  A    between atoms: _10  and  _11
REMARK    4  A    between atoms: _11  and  _12
REMARK    5  A    between atoms: _11  and  _14
REMARK    6  A    between atoms: _14  and  _15
REMARK    7  A    between atoms: _14  and  _16
REMARK    8  A    between atoms: _26  and  _27
REMARK    9  A    between atoms: _27  and  _28
REMARK   10  A    between atoms: _27  and  _30
REMARK   11  A    between atoms: _30  and  _31
REMARK   12  A    between atoms: _31  and  _32
REMARK   13  A    between atoms: _41  and  _42
REMARK   14  A    between atoms: _42  and  _43
REMARK   15  A    between atoms: _42  and  _45
REMARK   16  A    between atoms: _45  and  _46
REMARK   17  A    between atoms: _45  and  _47
REMARK   18  A    between atoms: _55  and  _56
REMARK   19  A    between atoms: _56  and  _57
REMARK   20  A    between atoms: _56  and  _59
REMARK   21  A    between atoms: _59  and  _60
REMARK   22  A    between atoms: _75  and  _76
REMARK   23  A    between atoms: _76  and  _77
REMARK   24  A    between atoms: _76  and  _79
REMARK   25  A    between atoms: _85  and  _86
REMARK   26  A    between atoms: _86  and  _87
REMARK   27  A    between atoms: _86  and  _89
REMARK   28  A    between atoms: _89  and  _90
REMARK   29  A    between atoms: _105  and  _106
REMARK   30  A    between atoms: _106  and  _107
REMARK   31  A    between atoms: _106  and  _109
REMARK   32  A    between atoms: _109  and  _110
REMARK   33  A    between atoms: _110  and  _111
REMARK   34  A    between atoms: _122  and  _123
REMARK   35  A    between atoms: _123  and  _124
REMARK   36  A    between atoms: _123  and  _126
REMARK   37  A    between atoms: _132  and  _133
REMARK   38  A    between atoms: _133  and  _134
REMARK   39  A    between atoms: _133  and  _136
REMARK   40  A    between atoms: _136  and  _137
REMARK   41  A    between atoms: _137  and  _138
REMARK   42  A    between atoms: _147  and  _148
REMARK   43  A    between atoms: _148  and  _149
REMARK   44  A    between atoms: _148  and  _151
REMARK   45  A    between atoms: _151  and  _152
REMARK   46  A    between atoms: _151  and  _153
REMARK   47  A    between atoms: _152  and  _154
REMARK   48  A    between atoms: _166  and  _167
REMARK   49  A    between atoms: _167  and  _168
REMARK   50  A    between atoms: _167  and  _170
REMARK   51  A    between atoms: _176  and  _177
REMARK   52  A    between atoms: _177  and  _178
REMARK   53  A    between atoms: _177  and  _180
REMARK   54  A    between atoms: _180  and  _181
REMARK   55  A    between atoms: _181  and  _182
REMARK   56  A    between atoms: _193  and  _194
REMARK   57  A    between atoms: _194  and  _195
REMARK   58  A    between atoms: _194  and  _197
REMARK   59  A    between atoms: _197  and  _198
REMARK   60  A    between atoms: _198  and  _199
REMARK   61  A    between atoms: _198  and  _200
REMARK   62  A    between atoms: _212  and  _213
REMARK   63  A    between atoms: _213  and  _214
REMARK   64  A    between atoms: _213  and  _216
REMARK   65  A    between atoms: _216  and  _217
REMARK   66  A    between atoms: _217  and  _218
REMARK   67  A    between atoms: _218  and  _219
REMARK   68  A    between atoms: _229  and  _230
REMARK   69  A    between atoms: _230  and  _231
REMARK   70  A    between atoms: _230  and  _233
REMARK   71  A    between atoms: _233  and  _234
REMARK   72  A    between atoms: _240  and  _241
REMARK   73  A    between atoms: _241  and  _242
REMARK   74  A    between atoms: _241  and  _244
REMARK   75  A    between atoms: _244  and  _245
REMARK   76  A    between atoms: _245  and  _246
REMARK   77  A    between atoms: _245  and  _247
REMARK   78  A    between atoms: _259  and  _260
REMARK   79  A    between atoms: _260  and  _261
REMARK   80  A    between atoms: _260  and  _263
REMARK   81  A    between atoms: _263  and  _264
REMARK   82  A    between atoms: _263  and  _265
REMARK   83  A    between atoms: _264  and  _266
REMARK   84  A    between atoms: _278  and  _279
REMARK   85  A    between atoms: _279  and  _280
REMARK   86  A    between atoms: _279  and  _282
REMARK   87  A    between atoms: _282  and  _283
REMARK   88  A    between atoms: _282  and  _284
REMARK   89  A    between atoms: _283  and  _285
REMARK   90  A    between atoms: _297  and  _298
REMARK   91  A    between atoms: _298  and  _299
REMARK   92  A    between atoms: _298  and  _301
REMARK   93  A    between atoms: _301  and  _302
REMARK   94  A    between atoms: _311  and  _312
REMARK   95  A    between atoms: _312  and  _313
REMARK   96  A    between atoms: _312  and  _315
REMARK   97  A    between atoms: _315  and  _316
REMARK   98  A    between atoms: _315  and  _317
REMARK   99  A    between atoms: _325  and  _326
REMARK  100  A    between atoms: _326  and  _327
REMARK  101  A    between atoms: _326  and  _329
REMARK  102  A    between atoms: _329  and  _330
REMARK  103  A    between atoms: _345  and  _346
REMARK  104  A    between atoms: _346  and  _347
REMARK  105  A    between atoms: _346  and  _349
REMARK  106  A    between atoms: _349  and  _350
REMARK  107  A    between atoms: _355  and  _356
REMARK  108  A    between atoms: _366  and  _367
REMARK  109  A    between atoms: _367  and  _368
REMARK  110  A    between atoms: _367  and  _370
REMARK  111  A    between atoms: _370  and  _371
REMARK  112  A    between atoms: _377  and  _378
REMARK  113  A    between atoms: _378  and  _379
REMARK  114  A    between atoms: _378  and  _381
REMARK  115  A    between atoms: _381  and  _382
REMARK  116  A    between atoms: _391  and  _392
REMARK  117  A    between atoms: _392  and  _393
REMARK  118  A    between atoms: _392  and  _395
REMARK  119  A    between atoms: _395  and  _396
REMARK  120  A    between atoms: _396  and  _397
REMARK  121  A    between atoms: _397  and  _398
REMARK  122  A    between atoms: _398  and  _399
REMARK  123  A    between atoms: _413  and  _414
REMARK  124  A    between atoms: _414  and  _415
REMARK  125  A    between atoms: _414  and  _417
REMARK  126  A    between atoms: _417  and  _418
REMARK  127  A    between atoms: _418  and  _419
REMARK  128  A    between atoms: _428  and  _429
REMARK  129  A    between atoms: _429  and  _430
REMARK  130  A    between atoms: _429  and  _432
REMARK  131  A    between atoms: _432  and  _433
REMARK  132  A    between atoms: _432  and  _434
REMARK  133  A    between atoms: _433  and  _435
REMARK  134  A    between atoms: _447  and  _448
REMARK  135  A    between atoms: _448  and  _449
REMARK  136  A    between atoms: _448  and  _451
REMARK  137  A    between atoms: _451  and  _452
REMARK  138  A    between atoms: _467  and  _468
REMARK  139  A    between atoms: _468  and  _469
REMARK  140  A    between atoms: _468  and  _471
REMARK  141  A    between atoms: _471  and  _472
REMARK  142  A    between atoms: _472  and  _473
REMARK  143  A    between atoms: _472  and  _474
REMARK  144  A    between atoms: _486  and  _487
REMARK  145  A    between atoms: _487  and  _488
REMARK  146  A    between atoms: _487  and  _490
REMARK  147  A    between atoms: _490  and  _491
REMARK  148  A    between atoms: _491  and  _492
REMARK  149  A    between atoms: _492  and  _493
REMARK  150  A    between atoms: _510  and  _511
REMARK  151  A    between atoms: _511  and  _512
REMARK  152  A    between atoms: _511  and  _514
REMARK  153  A    between atoms: _514  and  _515
REMARK  154  A    between atoms: _515  and  _516
REMARK  155  A    between atoms: _525  and  _526
REMARK  156  A    between atoms: _526  and  _527
REMARK  157  A    between atoms: _526  and  _529
REMARK  158  A    between atoms: _529  and  _530
REMARK  159  A    between atoms: _530  and  _531
REMARK  160  A    between atoms: _530  and  _532
REMARK  161  A    between atoms: _544  and  _545
REMARK  162  A    between atoms: _545  and  _546
REMARK  163  A    between atoms: _545  and  _548
REMARK  164  A    between atoms: _548  and  _549
REMARK  165  A    between atoms: _548  and  _550
REMARK  166  A    between atoms: _549  and  _551
REMARK  167  A    between atoms: _563  and  _564
REMARK  168  A    between atoms: _564  and  _565
REMARK  169  A    between atoms: _564  and  _567
REMARK  170  A    between atoms: _567  and  _568
REMARK  171  A    between atoms: _574  and  _575
REMARK  172  A    between atoms: _575  and  _576
REMARK  173  A    between atoms: _575  and  _578
REMARK  174  A    between atoms: _578  and  _579
REMARK  175  A    between atoms: _588  and  _589
REMARK  176  A    between atoms: _589  and  _590
REMARK  177  A    between atoms: _589  and  _592
REMARK  178  A    between atoms: _592  and  _593
REMARK  179  A    between atoms: _599  and  _600
REMARK  180  A    between atoms: _600  and  _601
REMARK  181  A    between atoms: _600  and  _603
REMARK  182  A    between atoms: _603  and  _604
REMARK  183  A    between atoms: _610  and  _611
REMARK  184  A    between atoms: _611  and  _612
REMARK  185  A    between atoms: _611  and  _614
REMARK  186  A    between atoms: _614  and  _615
REMARK  187  A    between atoms: _622  and  _623
REMARK  188  A    between atoms: _623  and  _624
REMARK  189  A    between atoms: _623  and  _626
REMARK  190  A    between atoms: _632  and  _633
REMARK  191  A    between atoms: _633  and  _634
REMARK  192  A    between atoms: _633  and  _636
REMARK  193  A    between atoms: _636  and  _637
REMARK  194  A    between atoms: _637  and  _638
REMARK  195  A    between atoms: _637  and  _639
REMARK  196  A    between atoms: _651  and  _652
REMARK  197  A    between atoms: _652  and  _653
REMARK  198  A    between atoms: _652  and  _655
REMARK  199  A    between atoms: _655  and  _656
REMARK  200  A    between atoms: _663  and  _664
REMARK  201  A    between atoms: _664  and  _665
REMARK  202  A    between atoms: _664  and  _667
REMARK  203  A    between atoms: _667  and  _668
REMARK  204  A    between atoms: _668  and  _669
REMARK  205  A    between atoms: _669  and  _670
REMARK  206  A    between atoms: _670  and  _671
REMARK  207  A    between atoms: _685  and  _686
REMARK  208  A    between atoms: _686  and  _687
REMARK  209  A    between atoms: _686  and  _689
REMARK  210  A    between atoms: _689  and  _690
REMARK  211  A    between atoms: _689  and  _691
REMARK  212  A    between atoms: _690  and  _692
REMARK  213  A    between atoms: _704  and  _705
REMARK  214  A    between atoms: _705  and  _706
REMARK  215  A    between atoms: _705  and  _708
REMARK  216  A    between atoms: _708  and  _709
REMARK  217  A    between atoms: _709  and  _710
REMARK  218  A    between atoms: _710  and  _711
REMARK  219  A    between atoms: _728  and  _729
REMARK  220  A    between atoms: _729  and  _730
REMARK  221  A    between atoms: _729  and  _732
REMARK  222  A    between atoms: _732  and  _733
REMARK  223  A    between atoms: _738  and  _739
REMARK  224  A    between atoms: _749  and  _750
REMARK  225  A    between atoms: _750  and  _751
REMARK  226  A    between atoms: _750  and  _753
REMARK  227  A    between atoms: _753  and  _754
REMARK  228  A    between atoms: _754  and  _755
REMARK  229  A    between atoms: _764  and  _765
REMARK  230  A    between atoms: _765  and  _766
REMARK  231  A    between atoms: _765  and  _768
REMARK  232  A    between atoms: _772  and  _773
REMARK  233  A    between atoms: _773  and  _774
REMARK  234  A    between atoms: _773  and  _776
REMARK  235  A    between atoms: _776  and  _777
REMARK  236  A    between atoms: _777  and  _778
REMARK  237  A    between atoms: _777  and  _779
REMARK  238  A    between atoms: _791  and  _792
REMARK  239  A    between atoms: _792  and  _793
REMARK  240  A    between atoms: _792  and  _795
REMARK  241  A    between atoms: _795  and  _796
REMARK  242  A    between atoms: _795  and  _797
REMARK  243  A    between atoms: _805  and  _806
REMARK  244  A    between atoms: _806  and  _807
REMARK  245  A    between atoms: _806  and  _809
REMARK  246  A    between atoms: _809  and  _810
REMARK  247  A    between atoms: _818  and  _819
REMARK  248  A    between atoms: _831  and  _832
REMARK  249  A    between atoms: _832  and  _833
REMARK  250  A    between atoms: _832  and  _835
REMARK  251  A    between atoms: _835  and  _836
REMARK  252  A    between atoms: _842  and  _843
REMARK  253  A    between atoms: _843  and  _844
REMARK  254  A    between atoms: _843  and  _846
REMARK  255  A    between atoms: _846  and  _847
REMARK  256  A    between atoms: _847  and  _848
REMARK  257  A    between atoms: _848  and  _849
REMARK  258  A    between atoms: _849  and  _850
REMARK  259  A    between atoms: _864  and  _865
REMARK  260  A    between atoms: _865  and  _866
REMARK  261  A    between atoms: _865  and  _868
REMARK  262  A    between atoms: _868  and  _869
REMARK  263  A    between atoms: _869  and  _870
REMARK  264  A    between atoms: _869  and  _871
REMARK  265  A    between atoms: _883  and  _884
REMARK  266  A    between atoms: _884  and  _885
REMARK  267  A    between atoms: _884  and  _887
REMARK  268  A    between atoms: _887  and  _888
REMARK  269  A    between atoms: _895  and  _896
REMARK  270  A    between atoms: _896  and  _897
REMARK  271  A    between atoms: _896  and  _899
REMARK  272  A    between atoms: _899  and  _900
REMARK  273  A    between atoms: _906  and  _907
REMARK  274  A    between atoms: _907  and  _908
REMARK  275  A    between atoms: _913  and  _914
REMARK  276  A    between atoms: _914  and  _915
REMARK  277  A    between atoms: _914  and  _917
REMARK  278  A    between atoms: _917  and  _918
REMARK  279  A    between atoms: _918  and  _919
REMARK  280  A    between atoms: _919  and  _920
REMARK  281  A    between atoms: _920  and  _921
REMARK  282  A    between atoms: _935  and  _936
REMARK  283  A    between atoms: _936  and  _937
REMARK  284  A    between atoms: _936  and  _939
REMARK  285  A    between atoms: _939  and  _940
REMARK  286  A    between atoms: _940  and  _941
REMARK  287  A    between atoms: _950  and  _951
REMARK  288  A    between atoms: _951  and  _952
REMARK  289  A    between atoms: _951  and  _954
REMARK  290  A    between atoms: _954  and  _955
REMARK  291  A    between atoms: _955  and  _956
REMARK  292  A    between atoms: _955  and  _957
REMARK  293  A    between atoms: _969  and  _970
REMARK  294  A    between atoms: _970  and  _971
REMARK  295  A    between atoms: _970  and  _973
REMARK  296  A    between atoms: _973  and  _974
REMARK  297  A    between atoms: _986  and  _987
REMARK  298  A    between atoms: _987  and  _988
REMARK  299  A    between atoms: _987  and  _990
REMARK  300  A    between atoms: _990  and  _991
REMARK  301  A    between atoms: _990  and  _992
REMARK  302  A    between atoms: _991  and  _993
REMARK  303  A    between atoms: _1005  and  _1006
REMARK  304  A    between atoms: _1006  and  _1007
REMARK  305  A    between atoms: _1006  and  _1009
REMARK  306  A    between atoms: _1009  and  _1010
REMARK  307  A    between atoms: _1019  and  _1020
REMARK  308  A    between atoms: _1020  and  _1021
REMARK  309  A    between atoms: _1020  and  _1023
REMARK  310  A    between atoms: _1023  and  _1024
REMARK  311  A    between atoms: _1024  and  _1025
REMARK  312  A    between atoms: _1024  and  _1026
REMARK  313  A    between atoms: _1038  and  _1039
REMARK  314  A    between atoms: _1039  and  _1040
REMARK  315  A    between atoms: _1039  and  _1042
REMARK  316  A    between atoms: _1042  and  _1043
REMARK  317  A    between atoms: _1042  and  _1044
REMARK  318  A    between atoms: _1043  and  _1045
REMARK  319  A    between atoms: _1058  and  _1059
REMARK  320  A    between atoms: _1071  and  _1072
REMARK  321  A    between atoms: _1072  and  _1073
REMARK  322  A    between atoms: _1072  and  _1075
REMARK  323  A    between atoms: _1075  and  _1076
REMARK  324  A    between atoms: _1085  and  _1086
REMARK  325  A    between atoms: _1086  and  _1087
REMARK  326  A    between atoms: _1086  and  _1089
REMARK  327  A    between atoms: _1089  and  _1090
REMARK  328  A    between atoms: _1090  and  _1091
REMARK  329  A    between atoms: _1091  and  _1092
REMARK  330  A    between atoms: _1092  and  _1093
REMARK  331  A    between atoms: _1107  and  _1108
REMARK  332  A    between atoms: _1108  and  _1109
REMARK  333  A    between atoms: _1108  and  _1111
REMARK  334  A    between atoms: _1111  and  _1112
REMARK  335  A    between atoms: _1112  and  _1113
REMARK  336  A    between atoms: _1124  and  _1125
REMARK  337  A    between atoms: _1125  and  _1126
REMARK  338  A    between atoms: _1125  and  _1128
REMARK  339  A    between atoms: _1128  and  _1129
REMARK  340  A    between atoms: _1136  and  _1137
REMARK  341  A    between atoms: _1137  and  _1138
REMARK  342  A    between atoms: _1137  and  _1140
REMARK  343  A    between atoms: _1140  and  _1141
REMARK  344  A    between atoms: _1141  and  _1142
REMARK  345  A    between atoms: _1142  and  _1143
REMARK  346  A    between atoms: _1160  and  _1161
REMARK  347  A    between atoms: _1161  and  _1162
REMARK  348  A    between atoms: _1161  and  _1164
REMARK  349  A    between atoms: _1164  and  _1165
REMARK  350  A    between atoms: _1164  and  _1166
REMARK  351  A    between atoms: _1174  and  _1175
REMARK  352  A    between atoms: _1175  and  _1176
REMARK  353  A    between atoms: _1175  and  _1178
REMARK  354  A    between atoms: _1178  and  _1179
REMARK  355  A    between atoms: _1179  and  _1180
REMARK  356  A    between atoms: _1179  and  _1181
REMARK  357  A    between atoms: _1193  and  _1194
REMARK  358  A    between atoms: _1194  and  _1195
REMARK  359  A    between atoms: _1194  and  _1197
REMARK  360  A    between atoms: _1197  and  _1198
REMARK  361  A    between atoms: _1197  and  _1199
REMARK  362  A    between atoms: _1207  and  _1208
REMARK  363  A    between atoms: _1208  and  _1209
REMARK  364  A    between atoms: _1208  and  _1211
REMARK  365  A    between atoms: _1211  and  _1212
REMARK  366  A    between atoms: _1211  and  _1213
REMARK  367  A    between atoms: _1212  and  _1214
REMARK  368  A    between atoms: _1226  and  _1227
REMARK  369  A    between atoms: _1227  and  _1228
REMARK  370  A    between atoms: _1227  and  _1230
REMARK  371  A    between atoms: _1230  and  _1231
REMARK  372  A    between atoms: _1230  and  _1232
REMARK  373  A    between atoms: _1242  and  _1243
REMARK  374  A    between atoms: _1243  and  _1244
REMARK  375  A    between atoms: _1243  and  _1246
REMARK  376  A    between atoms: _1246  and  _1247
REMARK  377  A    between atoms: _1254  and  _1255
REMARK  378  A    between atoms: _1255  and  _1256
REMARK  379  A    between atoms: _1255  and  _1258
REMARK  380  A    between atoms: _1258  and  _1259
REMARK  381  A    between atoms: _1258  and  _1260
REMARK  382  A    between atoms: _1268  and  _1269
REMARK  383  A    between atoms: _1269  and  _1270
REMARK  384  A    between atoms: _1275  and  _1276
REMARK  385  A    between atoms: _1276  and  _1277
REMARK  386  A    between atoms: _1276  and  _1279
REMARK  387  A    between atoms: _1279  and  _1280
REMARK  388  A    between atoms: _1279  and  _1281
REMARK  389  A    between atoms: _1280  and  _1282
REMARK  390  A    between atoms: _1294  and  _1295
REMARK  391  A    between atoms: _1295  and  _1296
REMARK  392  A    between atoms: _1301  and  _1302
REMARK  393  A    between atoms: _1302  and  _1303
REMARK  394  A    between atoms: _1302  and  _1305
REMARK  395  A    between atoms: _1305  and  _1306
REMARK  396  A    between atoms: _1306  and  _1307
REMARK  397  A    between atoms: _1307  and  _1308
REMARK  398  A    between atoms: _1318  and  _1319
REMARK  399  A    between atoms: _1319  and  _1320
REMARK  400  A    between atoms: _1319  and  _1322
REMARK  401  A    between atoms: _1322  and  _1323
REMARK  402  A    between atoms: _1322  and  _1324
REMARK  403  A    between atoms: _1332  and  _1333
REMARK  404  A    between atoms: _1333  and  _1334
REMARK  405  A    between atoms: _1333  and  _1336
REMARK  406  A    between atoms: _1336  and  _1337
REMARK  407  A    between atoms: _1337  and  _1338
REMARK  408  A    between atoms: _1338  and  _1339
REMARK  409  A    between atoms: _1339  and  _1340
REMARK  410  A    between atoms: _1354  and  _1355
REMARK  411  A    between atoms: _1355  and  _1356
REMARK  412  A    between atoms: _1355  and  _1358
REMARK  413  A    between atoms: _1364  and  _1365
REMARK  414  A    between atoms: _1365  and  _1366
REMARK  415  A    between atoms: _1365  and  _1368
REMARK  416  A    between atoms: _1368  and  _1369
REMARK  417  A    between atoms: _1376  and  _1377
REMARK  418  A    between atoms: _1377  and  _1378
REMARK  419  A    between atoms: _1377  and  _1380
REMARK  420  A    between atoms: _1380  and  _1381
REMARK  421  A    between atoms: _1381  and  _1382
REMARK  422  A    between atoms: _1381  and  _1383
REMARK  423  A    between atoms: _1395  and  _1396
REMARK  424  A    between atoms: _1396  and  _1399
REMARK  425  A    between atoms: _1399  and  _1400
REMARK  426  A    between atoms: _1399  and  _1401
REMARK  427  A    between atoms: _1400  and  _1402
REMARK  428  A    between atoms: _1422  and  _1425
REMARK  429  A    between atoms: _1424  and  _1428
REMARK  430  A    between atoms: _1425  and  _1427
REMARK  431  A    between atoms: _1443  and  _1444
REMARK  432  A    between atoms: _1443  and  _1446
REMARK  433  A    between atoms: _1446  and  _1447
REMARK  434  A    between atoms: _1457  and  _1458
REMARK  435  A    between atoms: _1458  and  _1459
REMARK  436  A    between atoms: _1458  and  _1461
REMARK  437  A    between atoms: _1461  and  _1462
REMARK  438  A    between atoms: _1462  and  _1463
REMARK  439  A    between atoms: _1462  and  _1464
REMARK  440  A    between atoms: _1476  and  _1477
REMARK  441  A    between atoms: _1477  and  _1478
REMARK  442  A    between atoms: _1483  and  _1484
REMARK  443  A    between atoms: _1484  and  _1485
REMARK  444  A    between atoms: _1484  and  _1487
REMARK  445  A    between atoms: _1487  and  _1488
REMARK  446  A    between atoms: _1487  and  _1489
REMARK  447  A    between atoms: _1497  and  _1498
REMARK  448  A    between atoms: _1498  and  _1499
REMARK  449  A    between atoms: _1498  and  _1501
REMARK  450  A    between atoms: _1501  and  _1502
REMARK  451  A    between atoms: _1501  and  _1503
REMARK  452  A    between atoms: _1502  and  _1504
REMARK  453  A    between atoms: _1516  and  _1517
REMARK  454  A    between atoms: _1517  and  _1518
REMARK  455  A    between atoms: _1517  and  _1520
REMARK  456  A    between atoms: _1526  and  _1527
REMARK  457  A    between atoms: _1527  and  _1528
REMARK  458  A    between atoms: _1527  and  _1530
REMARK  459  A    between atoms: _1530  and  _1531
REMARK  460  A    between atoms: _1531  and  _1532
REMARK  461  A    between atoms: _1532  and  _1533
REMARK  462  A    between atoms: _1533  and  _1534
REMARK  463  A    between atoms: _1548  and  _1549
REMARK  464  A    between atoms: _1549  and  _1550
REMARK  465  A    between atoms: _1549  and  _1552
REMARK  466  A    between atoms: _1552  and  _1553
REMARK  467  A    between atoms: _1559  and  _1560
REMARK  468  A    between atoms: _1560  and  _1561
REMARK  469  A    between atoms: _1566  and  _1567
REMARK  470  A    between atoms: _1567  and  _1568
REMARK  471  A    between atoms: _1567  and  _1570
REMARK  472  A    between atoms: _1570  and  _1571
REMARK  473  A    between atoms: _1570  and  _1572
REMARK  474  A    between atoms: _1580  and  _1581
REMARK  475  A    between atoms: _1581  and  _1582
REMARK  476  A    between atoms: _1581  and  _1584
REMARK  477  A    between atoms: _1584  and  _1585
REMARK  478  A    between atoms: _1585  and  _1586
REMARK  479  A    between atoms: _1586  and  _1587
REMARK  480  A    between atoms: _1587  and  _1588
REMARK  481  A    between atoms: _1602  and  _1603
REMARK  482  A    between atoms: _1603  and  _1604
REMARK  483  A    between atoms: _1603  and  _1606
REMARK  484  A    between atoms: _1612  and  _1613
REMARK  485  A    between atoms: _1613  and  _1614
REMARK  486  A    between atoms: _1613  and  _1616
REMARK  487  A    between atoms: _1616  and  _1617
REMARK  488  A    between atoms: _1632  and  _1633
REMARK  489  A    between atoms: _1633  and  _1634
REMARK  490  A    between atoms: _1633  and  _1636
REMARK  491  A    between atoms: _1636  and  _1637
REMARK  492  A    between atoms: _1637  and  _1638
REMARK  493  A    between atoms: _1638  and  _1639
REMARK  494  A    between atoms: _1649  and  _1650
REMARK  495  A    between atoms: _1650  and  _1651
REMARK  496  A    between atoms: _1650  and  _1653
REMARK  497  A    between atoms: _1653  and  _1654
REMARK  498  A    between atoms: _1654  and  _1655
REMARK  499  A    between atoms: _1664  and  _1665
REMARK  500  A    between atoms: _1665  and  _1666
REMARK  501  A    between atoms: _1665  and  _1668
REMARK  502  A    between atoms: _1674  and  _1675
REMARK  503  A    between atoms: _1675  and  _1676
REMARK  504  A    between atoms: _1675  and  _1678
REMARK  505  A    between atoms: _1678  and  _1679
REMARK  506  A    between atoms: _1679  and  _1680
REMARK  507  A    between atoms: _1679  and  _1681
REMARK  508  A    between atoms: _1693  and  _1694
REMARK  509  A    between atoms: _1694  and  _1695
REMARK  510  A    between atoms: _1694  and  _1697
REMARK  511  A    between atoms: _1697  and  _1698
REMARK  512  A    between atoms: _1698  and  _1699
REMARK  513  A    between atoms: _1710  and  _1711
REMARK  514  A    between atoms: _1711  and  _1712
REMARK  515  A    between atoms: _1711  and  _1714
REMARK  516  A    between atoms: _1720  and  _1721
REMARK  517  A    between atoms: _1721  and  _1722
REMARK  518  A    between atoms: _1727  and  _1728
REMARK  519  A    between atoms: _1728  and  _1729
REMARK  520  A    between atoms: _1728  and  _1731
REMARK  521  A    between atoms: _1737  and  _1738
REMARK  522  A    between atoms: _1738  and  _1739
REMARK  523  A    between atoms: _1738  and  _1741
REMARK  524  A    between atoms: _1741  and  _1742
REMARK  525  A    between atoms: _1749  and  _1750
REMARK  526  A    between atoms: _1750  and  _1751
REMARK  527  A    between atoms: _1750  and  _1753
REMARK  528  A    between atoms: _1753  and  _1754
REMARK  529  A    between atoms: _1753  and  _1755
REMARK  530  A    between atoms: _1754  and  _1756
REMARK  531  A    between atoms: _1768  and  _1769
REMARK  532  A    between atoms: _1769  and  _1772
REMARK  533  A    between atoms: _1772  and  _1773
REMARK  534  A    between atoms: _1791  and  _1793
REMARK  535  A    between atoms: _1792  and  _1794
REMARK  536  A    between atoms: _1814  and  _1815
REMARK  537  A    between atoms: _1814  and  _1817
REMARK  538  A    between atoms: _1817  and  _1818
REMARK  539  A    between atoms: _1817  and  _1819
REMARK  540  A    between atoms: _1818  and  _1820
REMARK  541  A    between atoms: _1833  and  _1834
REMARK  542  A    between atoms: _1834  and  _1835
REMARK  543  A    between atoms: _1840  and  _1841
REMARK  544  A    between atoms: _1841  and  _1842
REMARK  545  A    between atoms: _1841  and  _1844
REMARK  546  A    between atoms: _1844  and  _1845
REMARK  547  A    between atoms: _1845  and  _1846
REMARK  548  A    between atoms: _1857  and  _1858
REMARK  549  A    between atoms: _1858  and  _1859
REMARK  550  A    between atoms: _1858  and  _1861
REMARK  551  A    between atoms: _1861  and  _1862
REMARK  552  A    between atoms: _1877  and  _1878
REMARK  553  A    between atoms: _1878  and  _1879
REMARK  554  A    between atoms: _1884  and  _1885
REMARK  555  A    between atoms: _1885  and  _1886
REMARK  556  A    between atoms: _1885  and  _1888
REMARK  557  A    between atoms: _1888  and  _1889
REMARK  558  A    between atoms: _1888  and  _1890
REMARK  559  A    between atoms: _1900  and  _1901
REMARK  560  A    between atoms: _1901  and  _1902
REMARK  561  A    between atoms: _1907  and  _1908
REMARK  562  A    between atoms: _1908  and  _1909
REMARK  563  A    between atoms: _1908  and  _1911
REMARK  564  A    between atoms: _1911  and  _1912
REMARK  565  A    between atoms: _1927  and  _1928
REMARK  566  A    between atoms: _1928  and  _1929
REMARK  567  A    between atoms: _1928  and  _1931
REMARK  568  A    between atoms: _1931  and  _1932
REMARK  569  A    between atoms: _1937  and  _1938
REMARK  570  A    between atoms: _1948  and  _1949
REMARK  571  A    between atoms: _1949  and  _1950
REMARK  572  A    between atoms: _1949  and  _1952
REMARK  573  A    between atoms: _1952  and  _1953
REMARK  574  A    between atoms: _1959  and  _1960
REMARK  575  A    between atoms: _1960  and  _1961
REMARK  576  A    between atoms: _1960  and  _1963
REMARK  577  A    between atoms: _1969  and  _1970
REMARK  578  A    between atoms: _1970  and  _1971
REMARK  579  A    between atoms: _1970  and  _1973
REMARK  580  A    between atoms: _1973  and  _1974
REMARK  581  A    between atoms: _1979  and  _1980
REMARK  582  A    between atoms: _1990  and  _1991
REMARK  583  A    between atoms: _1991  and  _1992
REMARK  584  A    between atoms: _1991  and  _1994
REMARK  585  A    between atoms: _1994  and  _1995
REMARK  586  A    between atoms: _1995  and  _1996
REMARK  587  A    between atoms: _1995  and  _1997
REMARK  588  A    between atoms: _2009  and  _2010
REMARK  589  A    between atoms: _2010  and  _2011
REMARK  590  A    between atoms: _2010  and  _2013
REMARK  591  A    between atoms: _2013  and  _2014
REMARK  592  A    between atoms: _2013  and  _2015
REMARK  593  A    between atoms: _2025  and  _2026
REMARK  594  A    between atoms: _2026  and  _2027
REMARK  595  A    between atoms: _2026  and  _2029
REMARK  596  A    between atoms: _2035  and  _2036
REMARK  597  A    between atoms: _2036  and  _2037
REMARK  598  A    between atoms: _2036  and  _2039
REMARK  599  A    between atoms: _2039  and  _2040
REMARK  600  A    between atoms: _2040  and  _2041
REMARK  601  A    between atoms: _2050  and  _2051
REMARK  602  A    between atoms: _2051  and  _2052
REMARK  603  A    between atoms: _2051  and  _2054
REMARK  604  A    between atoms: _2054  and  _2055
REMARK  605  A    between atoms: _2055  and  _2056
REMARK  606  A    between atoms: _2056  and  _2057
REMARK  607  A    between atoms: _2057  and  _2058
REMARK  608  A    between atoms: _2072  and  _2073
REMARK  609  A    between atoms: _2073  and  _2074
REMARK  610  A    between atoms: _2073  and  _2076
REMARK  611  A    between atoms: _2076  and  _2077
REMARK  612  A    between atoms: _2076  and  _2078
REMARK  613  A    between atoms: _2088  and  _2089
REMARK  614  A    between atoms: _2089  and  _2090
REMARK  615  A    between atoms: _2089  and  _2092
REMARK  616  A    between atoms: _2092  and  _2093
REMARK  617  A    between atoms: _2092  and  _2094
REMARK  618  A    between atoms: _2102  and  _2103
REMARK  619  A    between atoms: _2103  and  _2104
REMARK  620  A    between atoms: _2103  and  _2106
REMARK  621  A    between atoms: _2106  and  _2107
REMARK  622  A    between atoms: _2106  and  _2108
REMARK  623  A    between atoms: _2118  and  _2119
REMARK  624  A    between atoms: _2119  and  _2120
REMARK  625  A    between atoms: _2119  and  _2122
REMARK  626  A    between atoms: _2122  and  _2123
REMARK  627  A    between atoms: _2122  and  _2124
REMARK  628  A    between atoms: _2123  and  _2125
REMARK  629  A    between atoms: _2137  and  _2138
REMARK  630  A    between atoms: _2138  and  _2139
REMARK  631  A    between atoms: _2138  and  _2141
REMARK  632  A    between atoms: _2141  and  _2142
REMARK  633  A    between atoms: _2141  and  _2143
REMARK  634  A    between atoms: _2151  and  _2152
REMARK  635  A    between atoms: _2152  and  _2153
REMARK  636  A    between atoms: _2152  and  _2155
REMARK  637  A    between atoms: _2155  and  _2156
REMARK  638  A    between atoms: _2156  and  _2157
REMARK  639  A    between atoms: _2157  and  _2158
REMARK  640  A    between atoms: _2158  and  _2159
REMARK  641  A    between atoms: _2173  and  _2174
REMARK  642  A    between atoms: _2174  and  _2175
REMARK  643  A    between atoms: _2174  and  _2177
REMARK  644  A    between atoms: _2177  and  _2178
REMARK  645  A    between atoms: _2190  and  _2191
REMARK  646  A    between atoms: _2191  and  _2192
REMARK  647  A    between atoms: _2191  and  _2194
REMARK  648  A    between atoms: _2194  and  _2195
REMARK  649  A    between atoms: _2204  and  _2205
REMARK  650  A    between atoms: _2205  and  _2206
REMARK  651  A    between atoms: _2205  and  _2208
REMARK  652  A    between atoms: _2208  and  _2209
REMARK  653  A    between atoms: _2216  and  _2217
REMARK  654  A    between atoms: _2217  and  _2218
REMARK  655  A    between atoms: _2217  and  _2220
REMARK  656  A    between atoms: _2220  and  _2221
REMARK  657  A    between atoms: _2228  and  _2229
REMARK  658  A    between atoms: _2229  and  _2230
REMARK  659  A    between atoms: _2229  and  _2232
REMARK  660  A    between atoms: _2232  and  _2233
REMARK  661  A    between atoms: _2233  and  _2234
REMARK  662  A    between atoms: _2243  and  _2244
REMARK  663  A    between atoms: _2244  and  _2245
REMARK  664  A    between atoms: _2244  and  _2247
REMARK  665  A    between atoms: _2247  and  _2248
REMARK  666  A    between atoms: _2248  and  _2249
REMARK  667  A    between atoms: _2260  and  _2261
REMARK  668  A    between atoms: _2261  and  _2262
REMARK  669  A    between atoms: _2261  and  _2264
REMARK  670  A    between atoms: _2264  and  _2265
REMARK  671  A    between atoms: _2270  and  _2271
REMARK  672  A    between atoms: _2281  and  _2282
REMARK  673  A    between atoms: _2282  and  _2283
REMARK  674  A    between atoms: _2282  and  _2285
REMARK  675  A    between atoms: _2291  and  _2292
REMARK  676  A    between atoms: _2292  and  _2293
REMARK  677  A    between atoms: _2292  and  _2295
REMARK  678  A    between atoms: _2295  and  _2296
REMARK  679  A    between atoms: _2315  and  _2316
REMARK  680  A    between atoms: _2316  and  _2317
REMARK  681  A    between atoms: _2316  and  _2319
REMARK  682  A    between atoms: _2319  and  _2320
REMARK  683  A    between atoms: _2320  and  _2321
REMARK  684  A    between atoms: _2330  and  _2331
REMARK  685  A    between atoms: _2331  and  _2332
REMARK  686  A    between atoms: _2331  and  _2334
REMARK  687  A    between atoms: _2334  and  _2335
REMARK  688  A    between atoms: _2341  and  _2342
REMARK  689  A    between atoms: _2342  and  _2343
REMARK  690  A    between atoms: _2342  and  _2345
REMARK  691  A    between atoms: _2345  and  _2346
REMARK  692  A    between atoms: _2352  and  _2353
REMARK  693  A    between atoms: _2353  and  _2354
REMARK  694  A    between atoms: _2353  and  _2356
REMARK  695  A    between atoms: _2362  and  _2363
REMARK  696  A    between atoms: _2363  and  _2364
REMARK  697  A    between atoms: _2369  and  _2370
REMARK  698  A    between atoms: _2370  and  _2371
REMARK  699  A    between atoms: _2376  and  _2377
REMARK  700  A    between atoms: _2377  and  _2378
REMARK  701  A    between atoms: _2377  and  _2380
REMARK  702  A    between atoms: _2380  and  _2381
REMARK  703  A    between atoms: _2387  and  _2388
REMARK  704  A    between atoms: _2388  and  _2389
REMARK  705  A    between atoms: _2388  and  _2391
REMARK  706  A    between atoms: _2391  and  _2392
REMARK  707  A    between atoms: _2407  and  _2408
REMARK  708  A    between atoms: _2408  and  _2409
REMARK  709  A    between atoms: _2408  and  _2411
REMARK  710  A    between atoms: _2411  and  _2412
REMARK  711  A    between atoms: _2411  and  _2413
REMARK  712  A    between atoms: _2421  and  _2422
REMARK  713  A    between atoms: _2422  and  _2423
REMARK  714  A    between atoms: _2422  and  _2425
REMARK  715  A    between atoms: _2425  and  _2426
REMARK  716  A    between atoms: _2425  and  _2427
REMARK  717  A    between atoms: _2437  and  _2438
REMARK  718  A    between atoms: _2438  and  _2439
REMARK  719  A    between atoms: _2438  and  _2441
REMARK  720  A    between atoms: _2441  and  _2442
REMARK  721  A    between atoms: _2442  and  _2443
REMARK  722  A    between atoms: _2443  and  _2444
REMARK  723  A    between atoms: _2461  and  _2462
REMARK  724  A    between atoms: _2462  and  _2463
REMARK  725  A    between atoms: _2462  and  _2465
REMARK  726  A    between atoms: _2465  and  _2466
REMARK  727  A    between atoms: _2465  and  _2467
REMARK  728  A    between atoms: _2475  and  _2476
REMARK  729  A    between atoms: _2476  and  _2477
REMARK  730  A    between atoms: _2476  and  _2479
REMARK  731  A    between atoms: _2479  and  _2480
REMARK  732  A    between atoms: _2487  and  _2488
REMARK  733  A    between atoms: _2488  and  _2489
REMARK  734  A    between atoms: _2488  and  _2491
REMARK  735  A    between atoms: _2491  and  _2492
REMARK  736  A    between atoms: _2491  and  _2493
REMARK  737  A    between atoms: _2501  and  _2502
REMARK  738  A    between atoms: _2502  and  _2503
REMARK  739  A    between atoms: _2508  and  _2509
REMARK  740  A    between atoms: _2509  and  _2510
REMARK  741  A    between atoms: _2509  and  _2512
REMARK  742  A    between atoms: _2512  and  _2513
REMARK  743  A    between atoms: _2513  and  _2514
REMARK  744  A    between atoms: _2524  and  _2525
REMARK  745  A    between atoms: _2537  and  _2538
REMARK  746  A    between atoms: _2538  and  _2539
REMARK  747  A    between atoms: _2538  and  _2541
REMARK  748  A    between atoms: _2541  and  _2542
REMARK  749  A    between atoms: _2542  and  _2543
REMARK  750  A    between atoms: _2543  and  _2544
REMARK  751  A    between atoms: _2554  and  _2555
REMARK  752  A    between atoms: _2555  and  _2556
REMARK  753  A    between atoms: _2561  and  _2562
REMARK  754  A    between atoms: _2562  and  _2563
REMARK  755  A    between atoms: _2562  and  _2565
REMARK  756  A    between atoms: _2565  and  _2566
REMARK  757  A    between atoms: _2566  and  _2567
REMARK  758  A    between atoms: _2567  and  _2568
REMARK  759  A    between atoms: _2585  and  _2586
REMARK  760  A    between atoms: _2586  and  _2587
REMARK  761  A    between atoms: _2592  and  _2593
REMARK  762  A    between atoms: _2593  and  _2594
REMARK  763  A    between atoms: _2593  and  _2596
REMARK  764  A    between atoms: _2596  and  _2597
REMARK  765  A    between atoms: _2596  and  _2598
REMARK  766  A    between atoms: _2606  and  _2607
REMARK  767  A    between atoms: _2607  and  _2608
REMARK  768  A    between atoms: _2607  and  _2610
REMARK  769  A    between atoms: _2610  and  _2611
REMARK  770  A    between atoms: _2611  and  _2612
REMARK  771  A    between atoms: _2612  and  _2613
REMARK  772  A    between atoms: _2613  and  _2614
REMARK  773  A    between atoms: _2628  and  _2629
REMARK  774  A    between atoms: _2629  and  _2630
REMARK  775  A    between atoms: _2629  and  _2632
REMARK  776  A    between atoms: _2632  and  _2633
REMARK  777  A    between atoms: _2632  and  _2634
REMARK  778  A    between atoms: _2644  and  _2645
REMARK  779  A    between atoms: _2645  and  _2646
REMARK  780  A    between atoms: _2645  and  _2648
REMARK  781  A    between atoms: _2648  and  _2649
REMARK  782  A    between atoms: _2648  and  _2650
REMARK  783  A    between atoms: _2649  and  _2651
REMARK  784  A    between atoms: _2663  and  _2664
REMARK  785  A    between atoms: _2664  and  _2665
REMARK  786  A    between atoms: _2664  and  _2667
REMARK  787  A    between atoms: _2667  and  _2668
REMARK  788  A    between atoms: _2668  and  _2669
REMARK  789  A    between atoms: _2668  and  _2670
REMARK  790  A    between atoms: _2682  and  _2683
REMARK  791  A    between atoms: _2683  and  _2684
REMARK  792  A    between atoms: _2683  and  _2686
REMARK  793  A    between atoms: _2686  and  _2687
REMARK  794  A    between atoms: _2699  and  _2700
REMARK  795  A    between atoms: _2700  and  _2701
REMARK  796  A    between atoms: _2700  and  _2703
REMARK  797  A    between atoms: _2703  and  _2704
REMARK  798  A    between atoms: _2704  and  _2705
REMARK  799  A    between atoms: _2704  and  _2706
REMARK  800  A    between atoms: _2718  and  _2719
REMARK  801  A    between atoms: _2719  and  _2720
REMARK  802  A    between atoms: _2719  and  _2722
REMARK  803  A    between atoms: _2722  and  _2723
REMARK  804  A    between atoms: _2723  and  _2724
REMARK  805  A    between atoms: _2724  and  _2725
REMARK  806  A    between atoms: _2725  and  _2726
REMARK  807  A    between atoms: _2740  and  _2741
REMARK  808  A    between atoms: _2741  and  _2742
REMARK  809  A    between atoms: _2741  and  _2744
REMARK  810  A    between atoms: _2744  and  _2745
REMARK  811  A    between atoms: _2745  and  _2746
REMARK  812  A    between atoms: _2755  and  _2756
REMARK  813  A    between atoms: _2756  and  _2757
REMARK  814  A    between atoms: _2756  and  _2759
REMARK  815  A    between atoms: _2759  and  _2760
REMARK  816  A    between atoms: _2767  and  _2768
REMARK  817  A    between atoms: _2768  and  _2769
REMARK  818  A    between atoms: _2768  and  _2771
REMARK  819  A    between atoms: _2771  and  _2772
REMARK  820  A    between atoms: _2772  and  _2773
REMARK  821  A    between atoms: _2784  and  _2785
REMARK  822  A    between atoms: _2785  and  _2786
REMARK  823  A    between atoms: _2785  and  _2788
REMARK  824  A    between atoms: _2788  and  _2789
REMARK  825  A    between atoms: _2788  and  _2790
REMARK  826  A    between atoms: _2798  and  _2799
REMARK  827  A    between atoms: _2799  and  _2800
REMARK  828  A    between atoms: _2799  and  _2802
REMARK  829  A    between atoms: _2802  and  _2803
REMARK  830  A    between atoms: _2803  and  _2804
REMARK  831  A    between atoms: _2813  and  _2814
REMARK  832  A    between atoms: _2814  and  _2815
REMARK  833  A    between atoms: _2814  and  _2817
REMARK  834  A    between atoms: _2817  and  _2818
REMARK  835  A    between atoms: _2823  and  _2824
REMARK  836  A    between atoms: _2834  and  _2835
REMARK  837  A    between atoms: _2835  and  _2838
REMARK  838  A    between atoms: _2838  and  _2839
REMARK  839  A    between atoms: _2839  and  _2840
REMARK  840  A    between atoms: _2839  and  _2841
REMARK  841  A    between atoms: _2884  and  _2885
REMARK  842  A    between atoms: _2884  and  _2887
REMARK  843  A    between atoms: _2887  and  _2888
REMARK  844  A    between atoms: _2888  and  _2889
REMARK  845  A    between atoms: _2899  and  _2900
REMARK  846  A    between atoms: _2900  and  _2901
REMARK  847  A    between atoms: _2900  and  _2903
REMARK  848  A    between atoms: _2903  and  _2904
REMARK  849  A    between atoms: _2904  and  _2905
REMARK  850  A    between atoms: _2905  and  _2906
REMARK  851  A    between atoms: _2923  and  _2924
REMARK  852  A    between atoms: _2924  and  _2925
REMARK  853  A    between atoms: _2924  and  _2927
REMARK  854  A    between atoms: _2927  and  _2928
REMARK  855  A    between atoms: _2928  and  _2929
REMARK  856  A    between atoms: _2929  and  _2930
REMARK  857  A    between atoms: _2947  and  _2948
REMARK  858  A    between atoms: _2948  and  _2949
REMARK  859  A    between atoms: _2948  and  _2951
REMARK  860  A    between atoms: _2951  and  _2952
REMARK  861  A    between atoms: _2951  and  _2953
REMARK  862  A    between atoms: _2952  and  _2954
REMARK  863  A    between atoms: _2966  and  _2967
REMARK  864  A    between atoms: _2967  and  _2968
REMARK  865  A    between atoms: _2967  and  _2970
REMARK  866  A    between atoms: _2970  and  _2971
REMARK  867  A    between atoms: _2971  and  _2972
REMARK  868  A    between atoms: _2972  and  _2973
REMARK  869  A    between atoms: _2973  and  _2974
REMARK  870  A    between atoms: _2988  and  _2989
REMARK  871  A    between atoms: _2989  and  _2990
REMARK  872  A    between atoms: _2989  and  _2992
REMARK  873  A    between atoms: _2992  and  _2993
REMARK  874  A    between atoms: _2993  and  _2994
REMARK  875  A    between atoms: _3003  and  _3004
REMARK  876  A    between atoms: _3004  and  _3005
REMARK  877  A    between atoms: _3004  and  _3007
REMARK  878  A    between atoms: _3007  and  _3008
REMARK  879  A    between atoms: _3007  and  _3009
REMARK  880  A    between atoms: _3008  and  _3010
REMARK  881  A    between atoms: _3022  and  _3023
REMARK  882  A    between atoms: _3023  and  _3024
REMARK  883  A    between atoms: _3023  and  _3026
REMARK  884  A    between atoms: _3026  and  _3027
REMARK  885  A    between atoms: _3026  and  _3028
REMARK  886  A    between atoms: _3038  and  _3039
REMARK  887  A    between atoms: _3039  and  _3040
REMARK  888  A    between atoms: _3039  and  _3042
REMARK  889  A    between atoms: _3042  and  _3043
REMARK  890  A    between atoms: _3043  and  _3044
REMARK  891  A    between atoms: _3044  and  _3045
REMARK  892  A    between atoms: _3045  and  _3046
REMARK  893  A    between atoms: _3060  and  _3061
REMARK  894  A    between atoms: _3061  and  _3062
REMARK  895  A    between atoms: _3061  and  _3064
REMARK  896  A    between atoms: _3064  and  _3065
REMARK  897  A    between atoms: _3065  and  _3066
REMARK  898  A    between atoms: _3066  and  _3067
REMARK  899  A    between atoms: _3067  and  _3068
REMARK  900  A    between atoms: _3082  and  _3083
REMARK  901  A    between atoms: _3083  and  _3084
REMARK  902  A    between atoms: _3083  and  _3086
REMARK  903  A    between atoms: _3086  and  _3087
REMARK  904  A    between atoms: _3099  and  _3100
REMARK  905  A    between atoms: _3100  and  _3101
REMARK  906  A    between atoms: _3100  and  _3103
REMARK  907  A    between atoms: _3103  and  _3104
REMARK  908  A    between atoms: _3110  and  _3111
REMARK  909  A    between atoms: _3111  and  _3112
REMARK  910  A    between atoms: _3111  and  _3114
REMARK  911  A    between atoms: _3114  and  _3115
REMARK  912  A    between atoms: _3115  and  _3116
REMARK  913  A    between atoms: _3127  and  _3128
REMARK  914  A    between atoms: _3128  and  _3129
REMARK  915  A    between atoms: _3128  and  _3131
REMARK  916  A    between atoms: _3131  and  _3132
REMARK  917  A    between atoms: _3147  and  _3148
REMARK  918  A    between atoms: _3148  and  _3149
REMARK  919  A    between atoms: _3148  and  _3151
REMARK  920  A    between atoms: _3151  and  _3152
REMARK  921  A    between atoms: _3151  and  _3153
REMARK  922  A    between atoms: _3152  and  _3154
REMARK  923  A    between atoms: _3166  and  _3167
REMARK  924  A    between atoms: _3167  and  _3168
REMARK  925  A    between atoms: _3173  and  _3174
REMARK  926  A    between atoms: _3174  and  _3175
REMARK  927  A    between atoms: _3174  and  _3177
REMARK  928  A    between atoms: _3177  and  _3178
REMARK  929  A    between atoms: _3183  and  _3184
REMARK  930  A    between atoms: _3195  and  _3196
REMARK  931  A    between atoms: _3208  and  _3209
REMARK  932  A    between atoms: _3209  and  _3210
REMARK  933  A    between atoms: _3209  and  _3212
REMARK  934  A    between atoms: _3212  and  _3213
REMARK  935  A    between atoms: _3212  and  _3214
REMARK  936  A    between atoms: _3213  and  _3215
REMARK  937  A    between atoms: _3227  and  _3228
REMARK  938  A    between atoms: _3228  and  _3229
REMARK  939  A    between atoms: _3228  and  _3231
REMARK  940  A    between atoms: _3231  and  _3232
REMARK  941  A    between atoms: _3231  and  _3233
REMARK  942  A    between atoms: _3241  and  _3242
REMARK  943  A    between atoms: _3242  and  _3243
REMARK  944  A    between atoms: _3242  and  _3245
REMARK  945  A    between atoms: _3245  and  _3246
REMARK  946  A    between atoms: _3246  and  _3247
REMARK  947  A    between atoms: _3246  and  _3248
REMARK  948  A    between atoms: _3260  and  _3261
REMARK  949  A    between atoms: _3261  and  _3262
REMARK  950  A    between atoms: _3261  and  _3264
REMARK  951  A    between atoms: _3264  and  _3265
REMARK  952  A    between atoms: _3280  and  _3281
REMARK  953  A    between atoms: _3281  and  _3282
REMARK  954  A    between atoms: _3281  and  _3284
REMARK  955  A    between atoms: _3284  and  _3285
REMARK  956  A    between atoms: _3284  and  _3286
REMARK  957  A    between atoms: _3296  and  _3297
REMARK  958  A    between atoms: _3297  and  _3298
REMARK  959  A    between atoms: _3297  and  _3300
REMARK  960  A    between atoms: _3300  and  _3301
REMARK  961  A    between atoms: _3301  and  _3302
REMARK                            x       y       z     vdW  Elec       q    Type
REMARK                         _______ _______ _______ _____ _____    ______ ____
ROOT
ATOM      1  O   HOH     1      12.759  35.487  19.366  0.00  0.00    +0.000 OA
ENDROOT
TORSDOF 0
REMARK  Name = /Users/mlugowska/PhD/ML_residence_time_prediction/protein_files/5J20_protein.pdb
REMARK  961 active torsions:
REMARK  status: ('A' for Active; 'I' for Inactive)
REMARK    1  A    between atoms: _2  and  _3
REMARK    2  A    between atoms: _2  and  _5
REMARK    3  A    between atoms: _10  and  _11
REMARK    4  A    between atoms: _11  and  _12
REMARK    5  A    between atoms: _11  and  _14
REMARK    6  A    between atoms: _14  and  _15
REMARK    7  A    between atoms: _14  and  _16
REMARK    8  A    between atoms: _26  and  _27
REMARK    9  A    between atoms: _27  and  _28
REMARK   10  A    between atoms: _27  and  _30
REMARK   11  A    between atoms: _30  and  _31
REMARK   12  A    between atoms: _31  and  _32
REMARK   13  A    between atoms: _41  and  _42
REMARK   14  A    between atoms: _42  and  _43
REMARK   15  A    between atoms: _42  and  _45
REMARK   16  A    between atoms: _45  and  _46
REMARK   17  A    between atoms: _45  and  _47
REMARK   18  A    between atoms: _55  and  _56
REMARK   19  A    between atoms: _56  and  _57
REMARK   20  A    between atoms: _56  and  _59
REMARK   21  A    between atoms: _59  and  _60
REMARK   22  A    between atoms: _75  and  _76
REMARK   23  A    between atoms: _76  and  _77
REMARK   24  A    between atoms: _76  and  _79
REMARK   25  A    between atoms: _85  and  _86
REMARK   26  A    between atoms: _86  and  _87
REMARK   27  A    between atoms: _86  and  _89
REMARK   28  A    between atoms: _89  and  _90
REMARK   29  A    between atoms: _105  and  _106
REMARK   30  A    between atoms: _106  and  _107
REMARK   31  A    between atoms: _106  and  _109
REMARK   32  A    between atoms: _109  and  _110
REMARK   33  A    between atoms: _110  and  _111
REMARK   34  A    between atoms: _122  and  _123
REMARK   35  A    between atoms: _123  and  _124
REMARK   36  A    between atoms: _123  and  _126
REMARK   37  A    between atoms: _132  and  _133
REMARK   38  A    between atoms: _133  and  _134
REMARK   39  A    between atoms: _133  and  _136
REMARK   40  A    between atoms: _136  and  _137
REMARK   41  A    between atoms: _137  and  _138
REMARK   42  A    between atoms: _147  and  _148
REMARK   43  A    between atoms: _148  and  _149
REMARK   44  A    between atoms: _148  and  _151
REMARK   45  A    between atoms: _151  and  _152
REMARK   46  A    between atoms: _151  and  _153
REMARK   47  A    between atoms: _152  and  _154
REMARK   48  A    between atoms: _166  and  _167
REMARK   49  A    between atoms: _167  and  _168
REMARK   50  A    between atoms: _167  and  _170
REMARK   51  A    between atoms: _176  and  _177
REMARK   52  A    between atoms: _177  and  _178
REMARK   53  A    between atoms: _177  and  _180
REMARK   54  A    between atoms: _180  and  _181
REMARK   55  A    between atoms: _181  and  _182
REMARK   56  A    between atoms: _193  and  _194
REMARK   57  A    between atoms: _194  and  _195
REMARK   58  A    between atoms: _194  and  _197
REMARK   59  A    between atoms: _197  and  _198
REMARK   60  A    between atoms: _198  and  _199
REMARK   61  A    between atoms: _198  and  _200
REMARK   62  A    between atoms: _212  and  _213
REMARK   63  A    between atoms: _213  and  _214
REMARK   64  A    between atoms: _213  and  _216
REMARK   65  A    between atoms: _216  and  _217
REMARK   66  A    between atoms: _217  and  _218
REMARK   67  A    between atoms: _218  and  _219
REMARK   68  A    between atoms: _229  and  _230
REMARK   69  A    between atoms: _230  and  _231
REMARK   70  A    between atoms: _230  and  _233
REMARK   71  A    between atoms: _233  and  _234
REMARK   72  A    between atoms: _240  and  _241
REMARK   73  A    between atoms: _241  and  _242
REMARK   74  A    between atoms: _241  and  _244
REMARK   75  A    between atoms: _244  and  _245
REMARK   76  A    between atoms: _245  and  _246
REMARK   77  A    between atoms: _245  and  _247
REMARK   78  A    between atoms: _259  and  _260
REMARK   79  A    between atoms: _260  and  _261
REMARK   80  A    between atoms: _260  and  _263
REMARK   81  A    between atoms: _263  and  _264
REMARK   82  A    between atoms: _263  and  _265
REMARK   83  A    between atoms: _264  and  _266
REMARK   84  A    between atoms: _278  and  _279
REMARK   85  A    between atoms: _279  and  _280
REMARK   86  A    between atoms: _279  and  _282
REMARK   87  A    between atoms: _282  and  _283
REMARK   88  A    between atoms: _282  and  _284
REMARK   89  A    between atoms: _283  and  _285
REMARK   90  A    between atoms: _297  and  _298
REMARK   91  A    between atoms: _298  and  _299
REMARK   92  A    between atoms: _298  and  _301
REMARK   93  A    between atoms: _301  and  _302
REMARK   94  A    between atoms: _311  and  _312
REMARK   95  A    between atoms: _312  and  _313
REMARK   96  A    between atoms: _312  and  _315
REMARK   97  A    between atoms: _315  and  _316
REMARK   98  A    between atoms: _315  and  _317
REMARK   99  A    between atoms: _325  and  _326
REMARK  100  A    between atoms: _326  and  _327
REMARK  101  A    between atoms: _326  and  _329
REMARK  102  A    between atoms: _329  and  _330
REMARK  103  A    between atoms: _345  and  _346
REMARK  104  A    between atoms: _346  and  _347
REMARK  105  A    between atoms: _346  and  _349
REMARK  106  A    between atoms: _349  and  _350
REMARK  107  A    between atoms: _355  and  _356
REMARK  108  A    between atoms: _366  and  _367
REMARK  109  A    between atoms: _367  and  _368
REMARK  110  A    between atoms: _367  and  _370
REMARK  111  A    between atoms: _370  and  _371
REMARK  112  A    between atoms: _377  and  _378
REMARK  113  A    between atoms: _378  and  _379
REMARK  114  A    between atoms: _378  and  _381
REMARK  115  A    between atoms: _381  and  _382
REMARK  116  A    between atoms: _391  and  _392
REMARK  117  A    between atoms: _392  and  _393
REMARK  118  A    between atoms: _392  and  _395
REMARK  119  A    between atoms: _395  and  _396
REMARK  120  A    between atoms: _396  and  _397
REMARK  121  A    between atoms: _397  and  _398
REMARK  122  A    between atoms: _398  and  _399
REMARK  123  A    between atoms: _413  and  _414
REMARK  124  A    between atoms: _414  and  _415
REMARK  125  A    between atoms: _414  and  _417
REMARK  126  A    between atoms: _417  and  _418
REMARK  127  A    between atoms: _418  and  _419
REMARK  128  A    between atoms: _428  and  _429
REMARK  129  A    between atoms: _429  and  _430
REMARK  130  A    between atoms: _429  and  _432
REMARK  131  A    between atoms: _432  and  _433
REMARK  132  A    between atoms: _432  and  _434
REMARK  133  A    between atoms: _433  and  _435
REMARK  134  A    between atoms: _447  and  _448
REMARK  135  A    between atoms: _448  and  _449
REMARK  136  A    between atoms: _448  and  _451
REMARK  137  A    between atoms: _451  and  _452
REMARK  138  A    between atoms: _467  and  _468
REMARK  139  A    between atoms: _468  and  _469
REMARK  140  A    between atoms: _468  and  _471
REMARK  141  A    between atoms: _471  and  _472
REMARK  142  A    between atoms: _472  and  _473
REMARK  143  A    between atoms: _472  and  _474
REMARK  144  A    between atoms: _486  and  _487
REMARK  145  A    between atoms: _487  and  _488
REMARK  146  A    between atoms: _487  and  _490
REMARK  147  A    between atoms: _490  and  _491
REMARK  148  A    between atoms: _491  and  _492
REMARK  149  A    between atoms: _492  and  _493
REMARK  150  A    between atoms: _510  and  _511
REMARK  151  A    between atoms: _511  and  _512
REMARK  152  A    between atoms: _511  and  _514
REMARK  153  A    between atoms: _514  and  _515
REMARK  154  A    between atoms: _515  and  _516
REMARK  155  A    between atoms: _525  and  _526
REMARK  156  A    between atoms: _526  and  _527
REMARK  157  A    between atoms: _526  and  _529
REMARK  158  A    between atoms: _529  and  _530
REMARK  159  A    between atoms: _530  and  _531
REMARK  160  A    between atoms: _530  and  _532
REMARK  161  A    between atoms: _544  and  _545
REMARK  162  A    between atoms: _545  and  _546
REMARK  163  A    between atoms: _545  and  _548
REMARK  164  A    between atoms: _548  and  _549
REMARK  165  A    between atoms: _548  and  _550
REMARK  166  A    between atoms: _549  and  _551
REMARK  167  A    between atoms: _563  and  _564
REMARK  168  A    between atoms: _564  and  _565
REMARK  169  A    between atoms: _564  and  _567
REMARK  170  A    between atoms: _567  and  _568
REMARK  171  A    between atoms: _574  and  _575
REMARK  172  A    between atoms: _575  and  _576
REMARK  173  A    between atoms: _575  and  _578
REMARK  174  A    between atoms: _578  and  _579
REMARK  175  A    between atoms: _588  and  _589
REMARK  176  A    between atoms: _589  and  _590
REMARK  177  A    between atoms: _589  and  _592
REMARK  178  A    between atoms: _592  and  _593
REMARK  179  A    between atoms: _599  and  _600
REMARK  180  A    between atoms: _600  and  _601
REMARK  181  A    between atoms: _600  and  _603
REMARK  182  A    between atoms: _603  and  _604
REMARK  183  A    between atoms: _610  and  _611
REMARK  184  A    between atoms: _611  and  _612
REMARK  185  A    between atoms: _611  and  _614
REMARK  186  A    between atoms: _614  and  _615
REMARK  187  A    between atoms: _622  and  _623
REMARK  188  A    between atoms: _623  and  _624
REMARK  189  A    between atoms: _623  and  _626
REMARK  190  A    between atoms: _632  and  _633
REMARK  191  A    between atoms: _633  and  _634
REMARK  192  A    between atoms: _633  and  _636
REMARK  193  A    between atoms: _636  and  _637
REMARK  194  A    between atoms: _637  and  _638
REMARK  195  A    between atoms: _637  and  _639
REMARK  196  A    between atoms: _651  and  _652
REMARK  197  A    between atoms: _652  and  _653
REMARK  198  A    between atoms: _652  and  _655
REMARK  199  A    between atoms: _655  and  _656
REMARK  200  A    between atoms: _663  and  _664
REMARK  201  A    between atoms: _664  and  _665
REMARK  202  A    between atoms: _664  and  _667
REMARK  203  A    between atoms: _667  and  _668
REMARK  204  A    between atoms: _668  and  _669
REMARK  205  A    between atoms: _669  and  _670
REMARK  206  A    between atoms: _670  and  _671
REMARK  207  A    between atoms: _685  and  _686
REMARK  208  A    between atoms: _686  and  _687
REMARK  209  A    between atoms: _686  and  _689
REMARK  210  A    between atoms: _689  and  _690
REMARK  211  A    between atoms: _689  and  _691
REMARK  212  A    between atoms: _690  and  _692
REMARK  213  A    between atoms: _704  and  _705
REMARK  214  A    between atoms: _705  and  _706
REMARK  215  A    between atoms: _705  and  _708
REMARK  216  A    between atoms: _708  and  _709
REMARK  217  A    between atoms: _709  and  _710
REMARK  218  A    between atoms: _710  and  _711
REMARK  219  A    between atoms: _728  and  _729
REMARK  220  A    between atoms: _729  and  _730
REMARK  221  A    between atoms: _729  and  _732
REMARK  222  A    between atoms: _732  and  _733
REMARK  223  A    between atoms: _738  and  _739
REMARK  224  A    between atoms: _749  and  _750
REMARK  225  A    between atoms: _750  and  _751
REMARK  226  A    between atoms: _750  and  _753
REMARK  227  A    between atoms: _753  and  _754
REMARK  228  A    between atoms: _754  and  _755
REMARK  229  A    between atoms: _764  and  _765
REMARK  230  A    between atoms: _765  and  _766
REMARK  231  A    between atoms: _765  and  _768
REMARK  232  A    between atoms: _772  and  _773
REMARK  233  A    between atoms: _773  and  _774
REMARK  234  A    between atoms: _773  and  _776
REMARK  235  A    between atoms: _776  and  _777
REMARK  236  A    between atoms: _777  and  _778
REMARK  237  A    between atoms: _777  and  _779
REMARK  238  A    between atoms: _791  and  _792
REMARK  239  A    between atoms: _792  and  _793
REMARK  240  A    between atoms: _792  and  _795
REMARK  241  A    between atoms: _795  and  _796
REMARK  242  A    between atoms: _795  and  _797
REMARK  243  A    between atoms: _805  and  _806
REMARK  244  A    between atoms: _806  and  _807
REMARK  245  A    between atoms: _806  and  _809
REMARK  246  A    between atoms: _809  and  _810
REMARK  247  A    between atoms: _818  and  _819
REMARK  248  A    between atoms: _831  and  _832
REMARK  249  A    between atoms: _832  and  _833
REMARK  250  A    between atoms: _832  and  _835
REMARK  251  A    between atoms: _835  and  _836
REMARK  252  A    between atoms: _842  and  _843
REMARK  253  A    between atoms: _843  and  _844
REMARK  254  A    between atoms: _843  and  _846
REMARK  255  A    between atoms: _846  and  _847
REMARK  256  A    between atoms: _847  and  _848
REMARK  257  A    between atoms: _848  and  _849
REMARK  258  A    between atoms: _849  and  _850
REMARK  259  A    between atoms: _864  and  _865
REMARK  260  A    between atoms: _865  and  _866
REMARK  261  A    between atoms: _865  and  _868
REMARK  262  A    between atoms: _868  and  _869
REMARK  263  A    between atoms: _869  and  _870
REMARK  264  A    between atoms: _869  and  _871
REMARK  265  A    between atoms: _883  and  _884
REMARK  266  A    between atoms: _884  and  _885
REMARK  267  A    between atoms: _884  and  _887
REMARK  268  A    between atoms: _887  and  _888
REMARK  269  A    between atoms: _895  and  _896
REMARK  270  A    between atoms: _896  and  _897
REMARK  271  A    between atoms: _896  and  _899
REMARK  272  A    between atoms: _899  and  _900
REMARK  273  A    between atoms: _906  and  _907
REMARK  274  A    between atoms: _907  and  _908
REMARK  275  A    between atoms: _913  and  _914
REMARK  276  A    between atoms: _914  and  _915
REMARK  277  A    between atoms: _914  and  _917
REMARK  278  A    between atoms: _917  and  _918
REMARK  279  A    between atoms: _918  and  _919
REMARK  280  A    between atoms: _919  and  _920
REMARK  281  A    between atoms: _920  and  _921
REMARK  282  A    between atoms: _935  and  _936
REMARK  283  A    between atoms: _936  and  _937
REMARK  284  A    between atoms: _936  and  _939
REMARK  285  A    between atoms: _939  and  _940
REMARK  286  A    between atoms: _940  and  _941
REMARK  287  A    between atoms: _950  and  _951
REMARK  288  A    between atoms: _951  and  _952
REMARK  289  A    between atoms: _951  and  _954
REMARK  290  A    between atoms: _954  and  _955
REMARK  291  A    between atoms: _955  and  _956
REMARK  292  A    between atoms: _955  and  _957
REMARK  293  A    between atoms: _969  and  _970
REMARK  294  A    between atoms: _970  and  _971
REMARK  295  A    between atoms: _970  and  _973
REMARK  296  A    between atoms: _973  and  _974
REMARK  297  A    between atoms: _986  and  _987
REMARK  298  A    between atoms: _987  and  _988
REMARK  299  A    between atoms: _987  and  _990
REMARK  300  A    between atoms: _990  and  _991
REMARK  301  A    between atoms: _990  and  _992
REMARK  302  A    between atoms: _991  and  _993
REMARK  303  A    between atoms: _1005  and  _1006
REMARK  304  A    between atoms: _1006  and  _1007
REMARK  305  A    between atoms: _1006  and  _1009
REMARK  306  A    between atoms: _1009  and  _1010
REMARK  307  A    between atoms: _1019  and  _1020
REMARK  308  A    between atoms: _1020  and  _1021
REMARK  309  A    between atoms: _1020  and  _1023
REMARK  310  A    between atoms: _1023  and  _1024
REMARK  311  A    between atoms: _1024  and  _1025
REMARK  312  A    between atoms: _1024  and  _1026
REMARK  313  A    between atoms: _1038  and  _1039
REMARK  314  A    between atoms: _1039  and  _1040
REMARK  315  A    between atoms: _1039  and  _1042
REMARK  316  A    between atoms: _1042  and  _1043
REMARK  317  A    between atoms: _1042  and  _1044
REMARK  318  A    between atoms: _1043  and  _1045
REMARK  319  A    between atoms: _1058  and  _1059
REMARK  320  A    between atoms: _1071  and  _1072
REMARK  321  A    between atoms: _1072  and  _1073
REMARK  322  A    between atoms: _1072  and  _1075
REMARK  323  A    between atoms: _1075  and  _1076
REMARK  324  A    between atoms: _1085  and  _1086
REMARK  325  A    between atoms: _1086  and  _1087
REMARK  326  A    between atoms: _1086  and  _1089
REMARK  327  A    between atoms: _1089  and  _1090
REMARK  328  A    between atoms: _1090  and  _1091
REMARK  329  A    between atoms: _1091  and  _1092
REMARK  330  A    between atoms: _1092  and  _1093
REMARK  331  A    between atoms: _1107  and  _1108
REMARK  332  A    between atoms: _1108  and  _1109
REMARK  333  A    between atoms: _1108  and  _1111
REMARK  334  A    between atoms: _1111  and  _1112
REMARK  335  A    between atoms: _1112  and  _1113
REMARK  336  A    between atoms: _1124  and  _1125
REMARK  337  A    between atoms: _1125  and  _1126
REMARK  338  A    between atoms: _1125  and  _1128
REMARK  339  A    between atoms: _1128  and  _1129
REMARK  340  A    between atoms: _1136  and  _1137
REMARK  341  A    between atoms: _1137  and  _1138
REMARK  342  A    between atoms: _1137  and  _1140
REMARK  343  A    between atoms: _1140  and  _1141
REMARK  344  A    between atoms: _1141  and  _1142
REMARK  345  A    between atoms: _1142  and  _1143
REMARK  346  A    between atoms: _1160  and  _1161
REMARK  347  A    between atoms: _1161  and  _1162
REMARK  348  A    between atoms: _1161  and  _1164
REMARK  349  A    between atoms: _1164  and  _1165
REMARK  350  A    between atoms: _1164  and  _1166
REMARK  351  A    between atoms: _1174  and  _1175
REMARK  352  A    between atoms: _1175  and  _1176
REMARK  353  A    between atoms: _1175  and  _1178
REMARK  354  A    between atoms: _1178  and  _1179
REMARK  355  A    between atoms: _1179  and  _1180
REMARK  356  A    between atoms: _1179  and  _1181
REMARK  357  A    between atoms: _1193  and  _1194
REMARK  358  A    between atoms: _1194  and  _1195
REMARK  359  A    between atoms: _1194  and  _1197
REMARK  360  A    between atoms: _1197  and  _1198
REMARK  361  A    between atoms: _1197  and  _1199
REMARK  362  A    between atoms: _1207  and  _1208
REMARK  363  A    between atoms: _1208  and  _1209
REMARK  364  A    between atoms: _1208  and  _1211
REMARK  365  A    between atoms: _1211  and  _1212
REMARK  366  A    between atoms: _1211  and  _1213
REMARK  367  A    between atoms: _1212  and  _1214
REMARK  368  A    between atoms: _1226  and  _1227
REMARK  369  A    between atoms: _1227  and  _1228
REMARK  370  A    between atoms: _1227  and  _1230
REMARK  371  A    between atoms: _1230  and  _1231
REMARK  372  A    between atoms: _1230  and  _1232
REMARK  373  A    between atoms: _1242  and  _1243
REMARK  374  A    between atoms: _1243  and  _1244
REMARK  375  A    between atoms: _1243  and  _1246
REMARK  376  A    between atoms: _1246  and  _1247
REMARK  377  A    between atoms: _1254  and  _1255
REMARK  378  A    between atoms: _1255  and  _1256
REMARK  379  A    between atoms: _1255  and  _1258
REMARK  380  A    between atoms: _1258  and  _1259
REMARK  381  A    between atoms: _1258  and  _1260
REMARK  382  A    between atoms: _1268  and  _1269
REMARK  383  A    between atoms: _1269  and  _1270
REMARK  384  A    between atoms: _1275  and  _1276
REMARK  385  A    between atoms: _1276  and  _1277
REMARK  386  A    between atoms: _1276  and  _1279
REMARK  387  A    between atoms: _1279  and  _1280
REMARK  388  A    between atoms: _1279  and  _1281
REMARK  389  A    between atoms: _1280  and  _1282
REMARK  390  A    between atoms: _1294  and  _1295
REMARK  391  A    between atoms: _1295  and  _1296
REMARK  392  A    between atoms: _1301  and  _1302
REMARK  393  A    between atoms: _1302  and  _1303
REMARK  394  A    between atoms: _1302  and  _1305
REMARK  395  A    between atoms: _1305  and  _1306
REMARK  396  A    between atoms: _1306  and  _1307
REMARK  397  A    between atoms: _1307  and  _1308
REMARK  398  A    between atoms: _1318  and  _1319
REMARK  399  A    between atoms: _1319  and  _1320
REMARK  400  A    between atoms: _1319  and  _1322
REMARK  401  A    between atoms: _1322  and  _1323
REMARK  402  A    between atoms: _1322  and  _1324
REMARK  403  A    between atoms: _1332  and  _1333
REMARK  404  A    between atoms: _1333  and  _1334
REMARK  405  A    between atoms: _1333  and  _1336
REMARK  406  A    between atoms: _1336  and  _1337
REMARK  407  A    between atoms: _1337  and  _1338
REMARK  408  A    between atoms: _1338  and  _1339
REMARK  409  A    between atoms: _1339  and  _1340
REMARK  410  A    between atoms: _1354  and  _1355
REMARK  411  A    between atoms: _1355  and  _1356
REMARK  412  A    between atoms: _1355  and  _1358
REMARK  413  A    between atoms: _1364  and  _1365
REMARK  414  A    between atoms: _1365  and  _1366
REMARK  415  A    between atoms: _1365  and  _1368
REMARK  416  A    between atoms: _1368  and  _1369
REMARK  417  A    between atoms: _1376  and  _1377
REMARK  418  A    between atoms: _1377  and  _1378
REMARK  419  A    between atoms: _1377  and  _1380
REMARK  420  A    between atoms: _1380  and  _1381
REMARK  421  A    between atoms: _1381  and  _1382
REMARK  422  A    between atoms: _1381  and  _1383
REMARK  423  A    between atoms: _1395  and  _1396
REMARK  424  A    between atoms: _1396  and  _1399
REMARK  425  A    between atoms: _1399  and  _1400
REMARK  426  A    between atoms: _1399  and  _1401
REMARK  427  A    between atoms: _1400  and  _1402
REMARK  428  A    between atoms: _1422  and  _1425
REMARK  429  A    between atoms: _1424  and  _1428
REMARK  430  A    between atoms: _1425  and  _1427
REMARK  431  A    between atoms: _1443  and  _1444
REMARK  432  A    between atoms: _1443  and  _1446
REMARK  433  A    between atoms: _1446  and  _1447
REMARK  434  A    between atoms: _1457  and  _1458
REMARK  435  A    between atoms: _1458  and  _1459
REMARK  436  A    between atoms: _1458  and  _1461
REMARK  437  A    between atoms: _1461  and  _1462
REMARK  438  A    between atoms: _1462  and  _1463
REMARK  439  A    between atoms: _1462  and  _1464
REMARK  440  A    between atoms: _1476  and  _1477
REMARK  441  A    between atoms: _1477  and  _1478
REMARK  442  A    between atoms: _1483  and  _1484
REMARK  443  A    between atoms: _1484  and  _1485
REMARK  444  A    between atoms: _1484  and  _1487
REMARK  445  A    between atoms: _1487  and  _1488
REMARK  446  A    between atoms: _1487  and  _1489
REMARK  447  A    between atoms: _1497  and  _1498
REMARK  448  A    between atoms: _1498  and  _1499
REMARK  449  A    between atoms: _1498  and  _1501
REMARK  450  A    between atoms: _1501  and  _1502
REMARK  451  A    between atoms: _1501  and  _1503
REMARK  452  A    between atoms: _1502  and  _1504
REMARK  453  A    between atoms: _1516  and  _1517
REMARK  454  A    between atoms: _1517  and  _1518
REMARK  455  A    between atoms: _1517  and  _1520
REMARK  456  A    between atoms: _1526  and  _1527
REMARK  457  A    between atoms: _1527  and  _1528
REMARK  458  A    between atoms: _1527  and  _1530
REMARK  459  A    between atoms: _1530  and  _1531
REMARK  460  A    between atoms: _1531  and  _1532
REMARK  461  A    between atoms: _1532  and  _1533
REMARK  462  A    between atoms: _1533  and  _1534
REMARK  463  A    between atoms: _1548  and  _1549
REMARK  464  A    between atoms: _1549  and  _1550
REMARK  465  A    between atoms: _1549  and  _1552
REMARK  466  A    between atoms: _1552  and  _1553
REMARK  467  A    between atoms: _1559  and  _1560
REMARK  468  A    between atoms: _1560  and  _1561
REMARK  469  A    between atoms: _1566  and  _1567
REMARK  470  A    between atoms: _1567  and  _1568
REMARK  471  A    between atoms: _1567  and  _1570
REMARK  472  A    between atoms: _1570  and  _1571
REMARK  473  A    between atoms: _1570  and  _1572
REMARK  474  A    between atoms: _1580  and  _1581
REMARK  475  A    between atoms: _1581  and  _1582
REMARK  476  A    between atoms: _1581  and  _1584
REMARK  477  A    between atoms: _1584  and  _1585
REMARK  478  A    between atoms: _1585  and  _1586
REMARK  479  A    between atoms: _1586  and  _1587
REMARK  480  A    between atoms: _1587  and  _1588
REMARK  481  A    between atoms: _1602  and  _1603
REMARK  482  A    between atoms: _1603  and  _1604
REMARK  483  A    between atoms: _1603  and  _1606
REMARK  484  A    between atoms: _1612  and  _1613
REMARK  485  A    between atoms: _1613  and  _1614
REMARK  486  A    between atoms: _1613  and  _1616
REMARK  487  A    between atoms: _1616  and  _1617
REMARK  488  A    between atoms: _1632  and  _1633
REMARK  489  A    between atoms: _1633  and  _1634
REMARK  490  A    between atoms: _1633  and  _1636
REMARK  491  A    between atoms: _1636  and  _1637
REMARK  492  A    between atoms: _1637  and  _1638
REMARK  493  A    between atoms: _1638  and  _1639
REMARK  494  A    between atoms: _1649  and  _1650
REMARK  495  A    between atoms: _1650  and  _1651
REMARK  496  A    between atoms: _1650  and  _1653
REMARK  497  A    between atoms: _1653  and  _1654
REMARK  498  A    between atoms: _1654  and  _1655
REMARK  499  A    between atoms: _1664  and  _1665
REMARK  500  A    between atoms: _1665  and  _1666
REMARK  501  A    between atoms: _1665  and  _1668
REMARK  502  A    between atoms: _1674  and  _1675
REMARK  503  A    between atoms: _1675  and  _1676
REMARK  504  A    between atoms: _1675  and  _1678
REMARK  505  A    between atoms: _1678  and  _1679
REMARK  506  A    between atoms: _1679  and  _1680
REMARK  507  A    between atoms: _1679  and  _1681
REMARK  508  A    between atoms: _1693  and  _1694
REMARK  509  A    between atoms: _1694  and  _1695
REMARK  510  A    between atoms: _1694  and  _1697
REMARK  511  A    between atoms: _1697  and  _1698
REMARK  512  A    between atoms: _1698  and  _1699
REMARK  513  A    between atoms: _1710  and  _1711
REMARK  514  A    between atoms: _1711  and  _1712
REMARK  515  A    between atoms: _1711  and  _1714
REMARK  516  A    between atoms: _1720  and  _1721
REMARK  517  A    between atoms: _1721  and  _1722
REMARK  518  A    between atoms: _1727  and  _1728
REMARK  519  A    between atoms: _1728  and  _1729
REMARK  520  A    between atoms: _1728  and  _1731
REMARK  521  A    between atoms: _1737  and  _1738
REMARK  522  A    between atoms: _1738  and  _1739
REMARK  523  A    between atoms: _1738  and  _1741
REMARK  524  A    between atoms: _1741  and  _1742
REMARK  525  A    between atoms: _1749  and  _1750
REMARK  526  A    between atoms: _1750  and  _1751
REMARK  527  A    between atoms: _1750  and  _1753
REMARK  528  A    between atoms: _1753  and  _1754
REMARK  529  A    between atoms: _1753  and  _1755
REMARK  530  A    between atoms: _1754  and  _1756
REMARK  531  A    between atoms: _1768  and  _1769
REMARK  532  A    between atoms: _1769  and  _1772
REMARK  533  A    between atoms: _1772  and  _1773
REMARK  534  A    between atoms: _1791  and  _1793
REMARK  535  A    between atoms: _1792  and  _1794
REMARK  536  A    between atoms: _1814  and  _1815
REMARK  537  A    between atoms: _1814  and  _1817
REMARK  538  A    between atoms: _1817  and  _1818
REMARK  539  A    between atoms: _1817  and  _1819
REMARK  540  A    between atoms: _1818  and  _1820
REMARK  541  A    between atoms: _1833  and  _1834
REMARK  542  A    between atoms: _1834  and  _1835
REMARK  543  A    between atoms: _1840  and  _1841
REMARK  544  A    between atoms: _1841  and  _1842
REMARK  545  A    between atoms: _1841  and  _1844
REMARK  546  A    between atoms: _1844  and  _1845
REMARK  547  A    between atoms: _1845  and  _1846
REMARK  548  A    between atoms: _1857  and  _1858
REMARK  549  A    between atoms: _1858  and  _1859
REMARK  550  A    between atoms: _1858  and  _1861
REMARK  551  A    between atoms: _1861  and  _1862
REMARK  552  A    between atoms: _1877  and  _1878
REMARK  553  A    between atoms: _1878  and  _1879
REMARK  554  A    between atoms: _1884  and  _1885
REMARK  555  A    between atoms: _1885  and  _1886
REMARK  556  A    between atoms: _1885  and  _1888
REMARK  557  A    between atoms: _1888  and  _1889
REMARK  558  A    between atoms: _1888  and  _1890
REMARK  559  A    between atoms: _1900  and  _1901
REMARK  560  A    between atoms: _1901  and  _1902
REMARK  561  A    between atoms: _1907  and  _1908
REMARK  562  A    between atoms: _1908  and  _1909
REMARK  563  A    between atoms: _1908  and  _1911
REMARK  564  A    between atoms: _1911  and  _1912
REMARK  565  A    between atoms: _1927  and  _1928
REMARK  566  A    between atoms: _1928  and  _1929
REMARK  567  A    between atoms: _1928  and  _1931
REMARK  568  A    between atoms: _1931  and  _1932
REMARK  569  A    between atoms: _1937  and  _1938
REMARK  570  A    between atoms: _1948  and  _1949
REMARK  571  A    between atoms: _1949  and  _1950
REMARK  572  A    between atoms: _1949  and  _1952
REMARK  573  A    between atoms: _1952  and  _1953
REMARK  574  A    between atoms: _1959  and  _1960
REMARK  575  A    between atoms: _1960  and  _1961
REMARK  576  A    between atoms: _1960  and  _1963
REMARK  577  A    between atoms: _1969  and  _1970
REMARK  578  A    between atoms: _1970  and  _1971
REMARK  579  A    between atoms: _1970  and  _1973
REMARK  580  A    between atoms: _1973  and  _1974
REMARK  581  A    between atoms: _1979  and  _1980
REMARK  582  A    between atoms: _1990  and  _1991
REMARK  583  A    between atoms: _1991  and  _1992
REMARK  584  A    between atoms: _1991  and  _1994
REMARK  585  A    between atoms: _1994  and  _1995
REMARK  586  A    between atoms: _1995  and  _1996
REMARK  587  A    between atoms: _1995  and  _1997
REMARK  588  A    between atoms: _2009  and  _2010
REMARK  589  A    between atoms: _2010  and  _2011
REMARK  590  A    between atoms: _2010  and  _2013
REMARK  591  A    between atoms: _2013  and  _2014
REMARK  592  A    between atoms: _2013  and  _2015
REMARK  593  A    between atoms: _2025  and  _2026
REMARK  594  A    between atoms: _2026  and  _2027
REMARK  595  A    between atoms: _2026  and  _2029
REMARK  596  A    between atoms: _2035  and  _2036
REMARK  597  A    between atoms: _2036  and  _2037
REMARK  598  A    between atoms: _2036  and  _2039
REMARK  599  A    between atoms: _2039  and  _2040
REMARK  600  A    between atoms: _2040  and  _2041
REMARK  601  A    between atoms: _2050  and  _2051
REMARK  602  A    between atoms: _2051  and  _2052
REMARK  603  A    between atoms: _2051  and  _2054
REMARK  604  A    between atoms: _2054  and  _2055
REMARK  605  A    between atoms: _2055  and  _2056
REMARK  606  A    between atoms: _2056  and  _2057
REMARK  607  A    between atoms: _2057  and  _2058
REMARK  608  A    between atoms: _2072  and  _2073
REMARK  609  A    between atoms: _2073  and  _2074
REMARK  610  A    between atoms: _2073  and  _2076
REMARK  611  A    between atoms: _2076  and  _2077
REMARK  612  A    between atoms: _2076  and  _2078
REMARK  613  A    between atoms: _2088  and  _2089
REMARK  614  A    between atoms: _2089  and  _2090
REMARK  615  A    between atoms: _2089  and  _2092
REMARK  616  A    between atoms: _2092  and  _2093
REMARK  617  A    between atoms: _2092  and  _2094
REMARK  618  A    between atoms: _2102  and  _2103
REMARK  619  A    between atoms: _2103  and  _2104
REMARK  620  A    between atoms: _2103  and  _2106
REMARK  621  A    between atoms: _2106  and  _2107
REMARK  622  A    between atoms: _2106  and  _2108
REMARK  623  A    between atoms: _2118  and  _2119
REMARK  624  A    between atoms: _2119  and  _2120
REMARK  625  A    between atoms: _2119  and  _2122
REMARK  626  A    between atoms: _2122  and  _2123
REMARK  627  A    between atoms: _2122  and  _2124
REMARK  628  A    between atoms: _2123  and  _2125
REMARK  629  A    between atoms: _2137  and  _2138
REMARK  630  A    between atoms: _2138  and  _2139
REMARK  631  A    between atoms: _2138  and  _2141
REMARK  632  A    between atoms: _2141  and  _2142
REMARK  633  A    between atoms: _2141  and  _2143
REMARK  634  A    between atoms: _2151  and  _2152
REMARK  635  A    between atoms: _2152  and  _2153
REMARK  636  A    between atoms: _2152  and  _2155
REMARK  637  A    between atoms: _2155  and  _2156
REMARK  638  A    between atoms: _2156  and  _2157
REMARK  639  A    between atoms: _2157  and  _2158
REMARK  640  A    between atoms: _2158  and  _2159
REMARK  641  A    between atoms: _2173  and  _2174
REMARK  642  A    between atoms: _2174  and  _2175
REMARK  643  A    between atoms: _2174  and  _2177
REMARK  644  A    between atoms: _2177  and  _2178
REMARK  645  A    between atoms: _2190  and  _2191
REMARK  646  A    between atoms: _2191  and  _2192
REMARK  647  A    between atoms: _2191  and  _2194
REMARK  648  A    between atoms: _2194  and  _2195
REMARK  649  A    between atoms: _2204  and  _2205
REMARK  650  A    between atoms: _2205  and  _2206
REMARK  651  A    between atoms: _2205  and  _2208
REMARK  652  A    between atoms: _2208  and  _2209
REMARK  653  A    between atoms: _2216  and  _2217
REMARK  654  A    between atoms: _2217  and  _2218
REMARK  655  A    between atoms: _2217  and  _2220
REMARK  656  A    between atoms: _2220  and  _2221
REMARK  657  A    between atoms: _2228  and  _2229
REMARK  658  A    between atoms: _2229  and  _2230
REMARK  659  A    between atoms: _2229  and  _2232
REMARK  660  A    between atoms: _2232  and  _2233
REMARK  661  A    between atoms: _2233  and  _2234
REMARK  662  A    between atoms: _2243  and  _2244
REMARK  663  A    between atoms: _2244  and  _2245
REMARK  664  A    between atoms: _2244  and  _2247
REMARK  665  A    between atoms: _2247  and  _2248
REMARK  666  A    between atoms: _2248  and  _2249
REMARK  667  A    between atoms: _2260  and  _2261
REMARK  668  A    between atoms: _2261  and  _2262
REMARK  669  A    between atoms: _2261  and  _2264
REMARK  670  A    between atoms: _2264  and  _2265
REMARK  671  A    between atoms: _2270  and  _2271
REMARK  672  A    between atoms: _2281  and  _2282
REMARK  673  A    between atoms: _2282  and  _2283
REMARK  674  A    between atoms: _2282  and  _2285
REMARK  675  A    between atoms: _2291  and  _2292
REMARK  676  A    between atoms: _2292  and  _2293
REMARK  677  A    between atoms: _2292  and  _2295
REMARK  678  A    between atoms: _2295  and  _2296
REMARK  679  A    between atoms: _2315  and  _2316
REMARK  680  A    between atoms: _2316  and  _2317
REMARK  681  A    between atoms: _2316  and  _2319
REMARK  682  A    between atoms: _2319  and  _2320
REMARK  683  A    between atoms: _2320  and  _2321
REMARK  684  A    between atoms: _2330  and  _2331
REMARK  685  A    between atoms: _2331  and  _2332
REMARK  686  A    between atoms: _2331  and  _2334
REMARK  687  A    between atoms: _2334  and  _2335
REMARK  688  A    between atoms: _2341  and  _2342
REMARK  689  A    between atoms: _2342  and  _2343
REMARK  690  A    between atoms: _2342  and  _2345
REMARK  691  A    between atoms: _2345  and  _2346
REMARK  692  A    between atoms: _2352  and  _2353
REMARK  693  A    between atoms: _2353  and  _2354
REMARK  694  A    between atoms: _2353  and  _2356
REMARK  695  A    between atoms: _2362  and  _2363
REMARK  696  A    between atoms: _2363  and  _2364
REMARK  697  A    between atoms: _2369  and  _2370
REMARK  698  A    between atoms: _2370  and  _2371
REMARK  699  A    between atoms: _2376  and  _2377
REMARK  700  A    between atoms: _2377  and  _2378
REMARK  701  A    between atoms: _2377  and  _2380
REMARK  702  A    between atoms: _2380  and  _2381
REMARK  703  A    between atoms: _2387  and  _2388
REMARK  704  A    between atoms: _2388  and  _2389
REMARK  705  A    between atoms: _2388  and  _2391
REMARK  706  A    between atoms: _2391  and  _2392
REMARK  707  A    between atoms: _2407  and  _2408
REMARK  708  A    between atoms: _2408  and  _2409
REMARK  709  A    between atoms: _2408  and  _2411
REMARK  710  A    between atoms: _2411  and  _2412
REMARK  711  A    between atoms: _2411  and  _2413
REMARK  712  A    between atoms: _2421  and  _2422
REMARK  713  A    between atoms: _2422  and  _2423
REMARK  714  A    between atoms: _2422  and  _2425
REMARK  715  A    between atoms: _2425  and  _2426
REMARK  716  A    between atoms: _2425  and  _2427
REMARK  717  A    between atoms: _2437  and  _2438
REMARK  718  A    between atoms: _2438  and  _2439
REMARK  719  A    between atoms: _2438  and  _2441
REMARK  720  A    between atoms: _2441  and  _2442
REMARK  721  A    between atoms: _2442  and  _2443
REMARK  722  A    between atoms: _2443  and  _2444
REMARK  723  A    between atoms: _2461  and  _2462
REMARK  724  A    between atoms: _2462  and  _2463
REMARK  725  A    between atoms: _2462  and  _2465
REMARK  726  A    between atoms: _2465  and  _2466
REMARK  727  A    between atoms: _2465  and  _2467
REMARK  728  A    between atoms: _2475  and  _2476
REMARK  729  A    between atoms: _2476  and  _2477
REMARK  730  A    between atoms: _2476  and  _2479
REMARK  731  A    between atoms: _2479  and  _2480
REMARK  732  A    between atoms: _2487  and  _2488
REMARK  733  A    between atoms: _2488  and  _2489
REMARK  734  A    between atoms: _2488  and  _2491
REMARK  735  A    between atoms: _2491  and  _2492
REMARK  736  A    between atoms: _2491  and  _2493
REMARK  737  A    between atoms: _2501  and  _2502
REMARK  738  A    between atoms: _2502  and  _2503
REMARK  739  A    between atoms: _2508  and  _2509
REMARK  740  A    between atoms: _2509  and  _2510
REMARK  741  A    between atoms: _2509  and  _2512
REMARK  742  A    between atoms: _2512  and  _2513
REMARK  743  A    between atoms: _2513  and  _2514
REMARK  744  A    between atoms: _2524  and  _2525
REMARK  745  A    between atoms: _2537  and  _2538
REMARK  746  A    between atoms: _2538  and  _2539
REMARK  747  A    between atoms: _2538  and  _2541
REMARK  748  A    between atoms: _2541  and  _2542
REMARK  749  A    between atoms: _2542  and  _2543
REMARK  750  A    between atoms: _2543  and  _2544
REMARK  751  A    between atoms: _2554  and  _2555
REMARK  752  A    between atoms: _2555  and  _2556
REMARK  753  A    between atoms: _2561  and  _2562
REMARK  754  A    between atoms: _2562  and  _2563
REMARK  755  A    between atoms: _2562  and  _2565
REMARK  756  A    between atoms: _2565  and  _2566
REMARK  757  A    between atoms: _2566  and  _2567
REMARK  758  A    between atoms: _2567  and  _2568
REMARK  759  A    between atoms: _2585  and  _2586
REMARK  760  A    between atoms: _2586  and  _2587
REMARK  761  A    between atoms: _2592  and  _2593
REMARK  762  A    between atoms: _2593  and  _2594
REMARK  763  A    between atoms: _2593  and  _2596
REMARK  764  A    between atoms: _2596  and  _2597
REMARK  765  A    between atoms: _2596  and  _2598
REMARK  766  A    between atoms: _2606  and  _2607
REMARK  767  A    between atoms: _2607  and  _2608
REMARK  768  A    between atoms: _2607  and  _2610
REMARK  769  A    between atoms: _2610  and  _2611
REMARK  770  A    between atoms: _2611  and  _2612
REMARK  771  A    between atoms: _2612  and  _2613
REMARK  772  A    between atoms: _2613  and  _2614
REMARK  773  A    between atoms: _2628  and  _2629
REMARK  774  A    between atoms: _2629  and  _2630
REMARK  775  A    between atoms: _2629  and  _2632
REMARK  776  A    between atoms: _2632  and  _2633
REMARK  777  A    between atoms: _2632  and  _2634
REMARK  778  A    between atoms: _2644  and  _2645
REMARK  779  A    between atoms: _2645  and  _2646
REMARK  780  A    between atoms: _2645  and  _2648
REMARK  781  A    between atoms: _2648  and  _2649
REMARK  782  A    between atoms: _2648  and  _2650
REMARK  783  A    between atoms: _2649  and  _2651
REMARK  784  A    between atoms: _2663  and  _2664
REMARK  785  A    between atoms: _2664  and  _2665
REMARK  786  A    between atoms: _2664  and  _2667
REMARK  787  A    between atoms: _2667  and  _2668
REMARK  788  A    between atoms: _2668  and  _2669
REMARK  789  A    between atoms: _2668  and  _2670
REMARK  790  A    between atoms: _2682  and  _2683
REMARK  791  A    between atoms: _2683  and  _2684
REMARK  792  A    between atoms: _2683  and  _2686
REMARK  793  A    between atoms: _2686  and  _2687
REMARK  794  A    between atoms: _2699  and  _2700
REMARK  795  A    between atoms: _2700  and  _2701
REMARK  796  A    between atoms: _2700  and  _2703
REMARK  797  A    between atoms: _2703  and  _2704
REMARK  798  A    between atoms: _2704  and  _2705
REMARK  799  A    between atoms: _2704  and  _2706
REMARK  800  A    between atoms: _2718  and  _2719
REMARK  801  A    between atoms: _2719  and  _2720
REMARK  802  A    between atoms: _2719  and  _2722
REMARK  803  A    between atoms: _2722  and  _2723
REMARK  804  A    between atoms: _2723  and  _2724
REMARK  805  A    between atoms: _2724  and  _2725
REMARK  806  A    between atoms: _2725  and  _2726
REMARK  807  A    between atoms: _2740  and  _2741
REMARK  808  A    between atoms: _2741  and  _2742
REMARK  809  A    between atoms: _2741  and  _2744
REMARK  810  A    between atoms: _2744  and  _2745
REMARK  811  A    between atoms: _2745  and  _2746
REMARK  812  A    between atoms: _2755  and  _2756
REMARK  813  A    between atoms: _2756  and  _2757
REMARK  814  A    between atoms: _2756  and  _2759
REMARK  815  A    between atoms: _2759  and  _2760
REMARK  816  A    between atoms: _2767  and  _2768
REMARK  817  A    between atoms: _2768  and  _2769
REMARK  818  A    between atoms: _2768  and  _2771
REMARK  819  A    between atoms: _2771  and  _2772
REMARK  820  A    between atoms: _2772  and  _2773
REMARK  821  A    between atoms: _2784  and  _2785
REMARK  822  A    between atoms: _2785  and  _2786
REMARK  823  A    between atoms: _2785  and  _2788
REMARK  824  A    between atoms: _2788  and  _2789
REMARK  825  A    between atoms: _2788  and  _2790
REMARK  826  A    between atoms: _2798  and  _2799
REMARK  827  A    between atoms: _2799  and  _2800
REMARK  828  A    between atoms: _2799  and  _2802
REMARK  829  A    between atoms: _2802  and  _2803
REMARK  830  A    between atoms: _2803  and  _2804
REMARK  831  A    between atoms: _2813  and  _2814
REMARK  832  A    between atoms: _2814  and  _2815
REMARK  833  A    between atoms: _2814  and  _2817
REMARK  834  A    between atoms: _2817  and  _2818
REMARK  835  A    between atoms: _2823  and  _2824
REMARK  836  A    between atoms: _2834  and  _2835
REMARK  837  A    between atoms: _2835  and  _2838
REMARK  838  A    between atoms: _2838  and  _2839
REMARK  839  A    between atoms: _2839  and  _2840
REMARK  840  A    between atoms: _2839  and  _2841
REMARK  841  A    between atoms: _2884  and  _2885
REMARK  842  A    between atoms: _2884  and  _2887
REMARK  843  A    between atoms: _2887  and  _2888
REMARK  844  A    between atoms: _2888  and  _2889
REMARK  845  A    between atoms: _2899  and  _2900
REMARK  846  A    between atoms: _2900  and  _2901
REMARK  847  A    between atoms: _2900  and  _2903
REMARK  848  A    between atoms: _2903  and  _2904
REMARK  849  A    between atoms: _2904  and  _2905
REMARK  850  A    between atoms: _2905  and  _2906
REMARK  851  A    between atoms: _2923  and  _2924
REMARK  852  A    between atoms: _2924  and  _2925
REMARK  853  A    between atoms: _2924  and  _2927
REMARK  854  A    between atoms: _2927  and  _2928
REMARK  855  A    between atoms: _2928  and  _2929
REMARK  856  A    between atoms: _2929  and  _2930
REMARK  857  A    between atoms: _2947  and  _2948
REMARK  858  A    between atoms: _2948  and  _2949
REMARK  859  A    between atoms: _2948  and  _2951
REMARK  860  A    between atoms: _2951  and  _2952
REMARK  861  A    between atoms: _2951  and  _2953
REMARK  862  A    between atoms: _2952  and  _2954
REMARK  863  A    between atoms: _2966  and  _2967
REMARK  864  A    between atoms: _2967  and  _2968
REMARK  865  A    between atoms: _2967  and  _2970
REMARK  866  A    between atoms: _2970  and  _2971
REMARK  867  A    between atoms: _2971  and  _2972
REMARK  868  A    between atoms: _2972  and  _2973
REMARK  869  A    between atoms: _2973  and  _2974
REMARK  870  A    between atoms: _2988  and  _2989
REMARK  871  A    between atoms: _2989  and  _2990
REMARK  872  A    between atoms: _2989  and  _2992
REMARK  873  A    between atoms: _2992  and  _2993
REMARK  874  A    between atoms: _2993  and  _2994
REMARK  875  A    between atoms: _3003  and  _3004
REMARK  876  A    between atoms: _3004  and  _3005
REMARK  877  A    between atoms: _3004  and  _3007
REMARK  878  A    between atoms: _3007  and  _3008
REMARK  879  A    between atoms: _3007  and  _3009
REMARK  880  A    between atoms: _3008  and  _3010
REMARK  881  A    between atoms: _3022  and  _3023
REMARK  882  A    between atoms: _3023  and  _3024
REMARK  883  A    between atoms: _3023  and  _3026
REMARK  884  A    between atoms: _3026  and  _3027
REMARK  885  A    between atoms: _3026  and  _3028
REMARK  886  A    between atoms: _3038  and  _3039
REMARK  887  A    between atoms: _3039  and  _3040
REMARK  888  A    between atoms: _3039  and  _3042
REMARK  889  A    between atoms: _3042  and  _3043
REMARK  890  A    between atoms: _3043  and  _3044
REMARK  891  A    between atoms: _3044  and  _3045
REMARK  892  A    between atoms: _3045  and  _3046
REMARK  893  A    between atoms: _3060  and  _3061
REMARK  894  A    between atoms: _3061  and  _3062
REMARK  895  A    between atoms: _3061  and  _3064
REMARK  896  A    between atoms: _3064  and  _3065
REMARK  897  A    between atoms: _3065  and  _3066
REMARK  898  A    between atoms: _3066  and  _3067
REMARK  899  A    between atoms: _3067  and  _3068
REMARK  900  A    between atoms: _3082  and  _3083
REMARK  901  A    between atoms: _3083  and  _3084
REMARK  902  A    between atoms: _3083  and  _3086
REMARK  903  A    between atoms: _3086  and  _3087
REMARK  904  A    between atoms: _3099  and  _3100
REMARK  905  A    between atoms: _3100  and  _3101
REMARK  906  A    between atoms: _3100  and  _3103
REMARK  907  A    between atoms: _3103  and  _3104
REMARK  908  A    between atoms: _3110  and  _3111
REMARK  909  A    between atoms: _3111  and  _3112
REMARK  910  A    between atoms: _3111  and  _3114
REMARK  911  A    between atoms: _3114  and  _3115
REMARK  912  A    between atoms: _3115  and  _3116
REMARK  913  A    between atoms: _3127  and  _3128
REMARK  914  A    between atoms: _3128  and  _3129
REMARK  915  A    between atoms: _3128  and  _3131
REMARK  916  A    between atoms: _3131  and  _3132
REMARK  917  A    between atoms: _3147  and  _3148
REMARK  918  A    between atoms: _3148  and  _3149
REMARK  919  A    between atoms: _3148  and  _3151
REMARK  920  A    between atoms: _3151  and  _3152
REMARK  921  A    between atoms: _3151  and  _3153
REMARK  922  A    between atoms: _3152  and  _3154
REMARK  923  A    between atoms: _3166  and  _3167
REMARK  924  A    between atoms: _3167  and  _3168
REMARK  925  A    between atoms: _3173  and  _3174
REMARK  926  A    between atoms: _3174  and  _3175
REMARK  927  A    between atoms: _3174  and  _3177
REMARK  928  A    between atoms: _3177  and  _3178
REMARK  929  A    between atoms: _3183  and  _3184
REMARK  930  A    between atoms: _3195  and  _3196
REMARK  931  A    between atoms: _3208  and  _3209
REMARK  932  A    between atoms: _3209  and  _3210
REMARK  933  A    between atoms: _3209  and  _3212
REMARK  934  A    between atoms: _3212  and  _3213
REMARK  935  A    between atoms: _3212  and  _3214
REMARK  936  A    between atoms: _3213  and  _3215
REMARK  937  A    between atoms: _3227  and  _3228
REMARK  938  A    between atoms: _3228  and  _3229
REMARK  939  A    between atoms: _3228  and  _3231
REMARK  940  A    between atoms: _3231  and  _3232
REMARK  941  A    between atoms: _3231  and  _3233
REMARK  942  A    between atoms: _3241  and  _3242
REMARK  943  A    between atoms: _3242  and  _3243
REMARK  944  A    between atoms: _3242  and  _3245
REMARK  945  A    between atoms: _3245  and  _3246
REMARK  946  A    between atoms: _3246  and  _3247
REMARK  947  A    between atoms: _3246  and  _3248
REMARK  948  A    between atoms: _3260  and  _3261
REMARK  949  A    between atoms: _3261  and  _3262
REMARK  950  A    between atoms: _3261  and  _3264
REMARK  951  A    between atoms: _3264  and  _3265
REMARK  952  A    between atoms: _3280  and  _3281
REMARK  953  A    between atoms: _3281  and  _3282
REMARK  954  A    between atoms: _3281  and  _3284
REMARK  955  A    between atoms: _3284  and  _3285
REMARK  956  A    between atoms: _3284  and  _3286
REMARK  957  A    between atoms: _3296  and  _3297
REMARK  958  A    between atoms: _3297  and  _3298
REMARK  959  A    between atoms: _3297  and  _3300
REMARK  960  A    between atoms: _3300  and  _3301
REMARK  961  A    between atoms: _3301  and  _3302
REMARK                            x       y       z     vdW  Elec       q    Type
REMARK                         _______ _______ _______ _____ _____    ______ ____
ROOT
ATOM      1  C   UNL     1      13.403  33.776  15.617  0.00  0.00    +0.178 C 
ENDROOT
BRANCH   1   2
ATOM      2  C   UNL     1      13.583  33.894  16.619  0.00  0.00    -0.011 C 
ATOM      3  C   UNL     1      13.893  33.731  17.048  0.00  0.00    +0.007 C 
ENDBRANCH   1   2
BRANCH   1   4
ATOM      4  O   UNL     1      12.358  34.357  15.318  0.00  0.00    -0.384 OA
ATOM      5  H   UNL     1      12.977  34.572  16.019  0.00  0.00    +0.210 HD
ENDBRANCH   1   4
TORSDOF 2
REMARK  Name = /Users/mlugowska/PhD/ML_residence_time_prediction/protein_files/5J20_protein.pdb
REMARK  961 active torsions:
REMARK  status: ('A' for Active; 'I' for Inactive)
REMARK    1  A    between atoms: _2  and  _3
REMARK    2  A    between atoms: _2  and  _5
REMARK    3  A    between atoms: _10  and  _11
REMARK    4  A    between atoms: _11  and  _12
REMARK    5  A    between atoms: _11  and  _14
REMARK    6  A    between atoms: _14  and  _15
REMARK    7  A    between atoms: _14  and  _16
REMARK    8  A    between atoms: _26  and  _27
REMARK    9  A    between atoms: _27  and  _28
REMARK   10  A    between atoms: _27  and  _30
REMARK   11  A    between atoms: _30  and  _31
REMARK   12  A    between atoms: _31  and  _32
REMARK   13  A    between atoms: _41  and  _42
REMARK   14  A    between atoms: _42  and  _43
REMARK   15  A    between atoms: _42  and  _45
REMARK   16  A    between atoms: _45  and  _46
REMARK   17  A    between atoms: _45  and  _47
REMARK   18  A    between atoms: _55  and  _56
REMARK   19  A    between atoms: _56  and  _57
REMARK   20  A    between atoms: _56  and  _59
REMARK   21  A    between atoms: _59  and  _60
REMARK   22  A    between atoms: _75  and  _76
REMARK   23  A    between atoms: _76  and  _77
REMARK   24  A    between atoms: _76  and  _79
REMARK   25  A    between atoms: _85  and  _86
REMARK   26  A    between atoms: _86  and  _87
REMARK   27  A    between atoms: _86  and  _89
REMARK   28  A    between atoms: _89  and  _90
REMARK   29  A    between atoms: _105  and  _106
REMARK   30  A    between atoms: _106  and  _107
REMARK   31  A    between atoms: _106  and  _109
REMARK   32  A    between atoms: _109  and  _110
REMARK   33  A    between atoms: _110  and  _111
REMARK   34  A    between atoms: _122  and  _123
REMARK   35  A    between atoms: _123  and  _124
REMARK   36  A    between atoms: _123  and  _126
REMARK   37  A    between atoms: _132  and  _133
REMARK   38  A    between atoms: _133  and  _134
REMARK   39  A    between atoms: _133  and  _136
REMARK   40  A    between atoms: _136  and  _137
REMARK   41  A    between atoms: _137  and  _138
REMARK   42  A    between atoms: _147  and  _148
REMARK   43  A    between atoms: _148  and  _149
REMARK   44  A    between atoms: _148  and  _151
REMARK   45  A    between atoms: _151  and  _152
REMARK   46  A    between atoms: _151  and  _153
REMARK   47  A    between atoms: _152  and  _154
REMARK   48  A    between atoms: _166  and  _167
REMARK   49  A    between atoms: _167  and  _168
REMARK   50  A    between atoms: _167  and  _170
REMARK   51  A    between atoms: _176  and  _177
REMARK   52  A    between atoms: _177  and  _178
REMARK   53  A    between atoms: _177  and  _180
REMARK   54  A    between atoms: _180  and  _181
REMARK   55  A    between atoms: _181  and  _182
REMARK   56  A    between atoms: _193  and  _194
REMARK   57  A    between atoms: _194  and  _195
REMARK   58  A    between atoms: _194  and  _197
REMARK   59  A    between atoms: _197  and  _198
REMARK   60  A    between atoms: _198  and  _199
REMARK   61  A    between atoms: _198  and  _200
REMARK   62  A    between atoms: _212  and  _213
REMARK   63  A    between atoms: _213  and  _214
REMARK   64  A    between atoms: _213  and  _216
REMARK   65  A    between atoms: _216  and  _217
REMARK   66  A    between atoms: _217  and  _218
REMARK   67  A    between atoms: _218  and  _219
REMARK   68  A    between atoms: _229  and  _230
REMARK   69  A    between atoms: _230  and  _231
REMARK   70  A    between atoms: _230  and  _233
REMARK   71  A    between atoms: _233  and  _234
REMARK   72  A    between atoms: _240  and  _241
REMARK   73  A    between atoms: _241  and  _242
REMARK   74  A    between atoms: _241  and  _244
REMARK   75  A    between atoms: _244  and  _245
REMARK   76  A    between atoms: _245  and  _246
REMARK   77  A    between atoms: _245  and  _247
REMARK   78  A    between atoms: _259  and  _260
REMARK   79  A    between atoms: _260  and  _261
REMARK   80  A    between atoms: _260  and  _263
REMARK   81  A    between atoms: _263  and  _264
REMARK   82  A    between atoms: _263  and  _265
REMARK   83  A    between atoms: _264  and  _266
REMARK   84  A    between atoms: _278  and  _279
REMARK   85  A    between atoms: _279  and  _280
REMARK   86  A    between atoms: _279  and  _282
REMARK   87  A    between atoms: _282  and  _283
REMARK   88  A    between atoms: _282  and  _284
REMARK   89  A    between atoms: _283  and  _285
REMARK   90  A    between atoms: _297  and  _298
REMARK   91  A    between atoms: _298  and  _299
REMARK   92  A    between atoms: _298  and  _301
REMARK   93  A    between atoms: _301  and  _302
REMARK   94  A    between atoms: _311  and  _312
REMARK   95  A    between atoms: _312  and  _313
REMARK   96  A    between atoms: _312  and  _315
REMARK   97  A    between atoms: _315  and  _316
REMARK   98  A    between atoms: _315  and  _317
REMARK   99  A    between atoms: _325  and  _326
REMARK  100  A    between atoms: _326  and  _327
REMARK  101  A    between atoms: _326  and  _329
REMARK  102  A    between atoms: _329  and  _330
REMARK  103  A    between atoms: _345  and  _346
REMARK  104  A    between atoms: _346  and  _347
REMARK  105  A    between atoms: _346  and  _349
REMARK  106  A    between atoms: _349  and  _350
REMARK  107  A    between atoms: _355  and  _356
REMARK  108  A    between atoms: _366  and  _367
REMARK  109  A    between atoms: _367  and  _368
REMARK  110  A    between atoms: _367  and  _370
REMARK  111  A    between atoms: _370  and  _371
REMARK  112  A    between atoms: _377  and  _378
REMARK  113  A    between atoms: _378  and  _379
REMARK  114  A    between atoms: _378  and  _381
REMARK  115  A    between atoms: _381  and  _382
REMARK  116  A    between atoms: _391  and  _392
REMARK  117  A    between atoms: _392  and  _393
REMARK  118  A    between atoms: _392  and  _395
REMARK  119  A    between atoms: _395  and  _396
REMARK  120  A    between atoms: _396  and  _397
REMARK  121  A    between atoms: _397  and  _398
REMARK  122  A    between atoms: _398  and  _399
REMARK  123  A    between atoms: _413  and  _414
REMARK  124  A    between atoms: _414  and  _415
REMARK  125  A    between atoms: _414  and  _417
REMARK  126  A    between atoms: _417  and  _418
REMARK  127  A    between atoms: _418  and  _419
REMARK  128  A    between atoms: _428  and  _429
REMARK  129  A    between atoms: _429  and  _430
REMARK  130  A    between atoms: _429  and  _432
REMARK  131  A    between atoms: _432  and  _433
REMARK  132  A    between atoms: _432  and  _434
REMARK  133  A    between atoms: _433  and  _435
REMARK  134  A    between atoms: _447  and  _448
REMARK  135  A    between atoms: _448  and  _449
REMARK  136  A    between atoms: _448  and  _451
REMARK  137  A    between atoms: _451  and  _452
REMARK  138  A    between atoms: _467  and  _468
REMARK  139  A    between atoms: _468  and  _469
REMARK  140  A    between atoms: _468  and  _471
REMARK  141  A    between atoms: _471  and  _472
REMARK  142  A    between atoms: _472  and  _473
REMARK  143  A    between atoms: _472  and  _474
REMARK  144  A    between atoms: _486  and  _487
REMARK  145  A    between atoms: _487  and  _488
REMARK  146  A    between atoms: _487  and  _490
REMARK  147  A    between atoms: _490  and  _491
REMARK  148  A    between atoms: _491  and  _492
REMARK  149  A    between atoms: _492  and  _493
REMARK  150  A    between atoms: _510  and  _511
REMARK  151  A    between atoms: _511  and  _512
REMARK  152  A    between atoms: _511  and  _514
REMARK  153  A    between atoms: _514  and  _515
REMARK  154  A    between atoms: _515  and  _516
REMARK  155  A    between atoms: _525  and  _526
REMARK  156  A    between atoms: _526  and  _527
REMARK  157  A    between atoms: _526  and  _529
REMARK  158  A    between atoms: _529  and  _530
REMARK  159  A    between atoms: _530  and  _531
REMARK  160  A    between atoms: _530  and  _532
REMARK  161  A    between atoms: _544  and  _545
REMARK  162  A    between atoms: _545  and  _546
REMARK  163  A    between atoms: _545  and  _548
REMARK  164  A    between atoms: _548  and  _549
REMARK  165  A    between atoms: _548  and  _550
REMARK  166  A    between atoms: _549  and  _551
REMARK  167  A    between atoms: _563  and  _564
REMARK  168  A    between atoms: _564  and  _565
REMARK  169  A    between atoms: _564  and  _567
REMARK  170  A    between atoms: _567  and  _568
REMARK  171  A    between atoms: _574  and  _575
REMARK  172  A    between atoms: _575  and  _576
REMARK  173  A    between atoms: _575  and  _578
REMARK  174  A    between atoms: _578  and  _579
REMARK  175  A    between atoms: _588  and  _589
REMARK  176  A    between atoms: _589  and  _590
REMARK  177  A    between atoms: _589  and  _592
REMARK  178  A    between atoms: _592  and  _593
REMARK  179  A    between atoms: _599  and  _600
REMARK  180  A    between atoms: _600  and  _601
REMARK  181  A    between atoms: _600  and  _603
REMARK  182  A    between atoms: _603  and  _604
REMARK  183  A    between atoms: _610  and  _611
REMARK  184  A    between atoms: _611  and  _612
REMARK  185  A    between atoms: _611  and  _614
REMARK  186  A    between atoms: _614  and  _615
REMARK  187  A    between atoms: _622  and  _623
REMARK  188  A    between atoms: _623  and  _624
REMARK  189  A    between atoms: _623  and  _626
REMARK  190  A    between atoms: _632  and  _633
REMARK  191  A    between atoms: _633  and  _634
REMARK  192  A    between atoms: _633  and  _636
REMARK  193  A    between atoms: _636  and  _637
REMARK  194  A    between atoms: _637  and  _638
REMARK  195  A    between atoms: _637  and  _639
REMARK  196  A    between atoms: _651  and  _652
REMARK  197  A    between atoms: _652  and  _653
REMARK  198  A    between atoms: _652  and  _655
REMARK  199  A    between atoms: _655  and  _656
REMARK  200  A    between atoms: _663  and  _664
REMARK  201  A    between atoms: _664  and  _665
REMARK  202  A    between atoms: _664  and  _667
REMARK  203  A    between atoms: _667  and  _668
REMARK  204  A    between atoms: _668  and  _669
REMARK  205  A    between atoms: _669  and  _670
REMARK  206  A    between atoms: _670  and  _671
REMARK  207  A    between atoms: _685  and  _686
REMARK  208  A    between atoms: _686  and  _687
REMARK  209  A    between atoms: _686  and  _689
REMARK  210  A    between atoms: _689  and  _690
REMARK  211  A    between atoms: _689  and  _691
REMARK  212  A    between atoms: _690  and  _692
REMARK  213  A    between atoms: _704  and  _705
REMARK  214  A    between atoms: _705  and  _706
REMARK  215  A    between atoms: _705  and  _708
REMARK  216  A    between atoms: _708  and  _709
REMARK  217  A    between atoms: _709  and  _710
REMARK  218  A    between atoms: _710  and  _711
REMARK  219  A    between atoms: _728  and  _729
REMARK  220  A    between atoms: _729  and  _730
REMARK  221  A    between atoms: _729  and  _732
REMARK  222  A    between atoms: _732  and  _733
REMARK  223  A    between atoms: _738  and  _739
REMARK  224  A    between atoms: _749  and  _750
REMARK  225  A    between atoms: _750  and  _751
REMARK  226  A    between atoms: _750  and  _753
REMARK  227  A    between atoms: _753  and  _754
REMARK  228  A    between atoms: _754  and  _755
REMARK  229  A    between atoms: _764  and  _765
REMARK  230  A    between atoms: _765  and  _766
REMARK  231  A    between atoms: _765  and  _768
REMARK  232  A    between atoms: _772  and  _773
REMARK  233  A    between atoms: _773  and  _774
REMARK  234  A    between atoms: _773  and  _776
REMARK  235  A    between atoms: _776  and  _777
REMARK  236  A    between atoms: _777  and  _778
REMARK  237  A    between atoms: _777  and  _779
REMARK  238  A    between atoms: _791  and  _792
REMARK  239  A    between atoms: _792  and  _793
REMARK  240  A    between atoms: _792  and  _795
REMARK  241  A    between atoms: _795  and  _796
REMARK  242  A    between atoms: _795  and  _797
REMARK  243  A    between atoms: _805  and  _806
REMARK  244  A    between atoms: _806  and  _807
REMARK  245  A    between atoms: _806  and  _809
REMARK  246  A    between atoms: _809  and  _810
REMARK  247  A    between atoms: _818  and  _819
REMARK  248  A    between atoms: _831  and  _832
REMARK  249  A    between atoms: _832  and  _833
REMARK  250  A    between atoms: _832  and  _835
REMARK  251  A    between atoms: _835  and  _836
REMARK  252  A    between atoms: _842  and  _843
REMARK  253  A    between atoms: _843  and  _844
REMARK  254  A    between atoms: _843  and  _846
REMARK  255  A    between atoms: _846  and  _847
REMARK  256  A    between atoms: _847  and  _848
REMARK  257  A    between atoms: _848  and  _849
REMARK  258  A    between atoms: _849  and  _850
REMARK  259  A    between atoms: _864  and  _865
REMARK  260  A    between atoms: _865  and  _866
REMARK  261  A    between atoms: _865  and  _868
REMARK  262  A    between atoms: _868  and  _869
REMARK  263  A    between atoms: _869  and  _870
REMARK  264  A    between atoms: _869  and  _871
REMARK  265  A    between atoms: _883  and  _884
REMARK  266  A    between atoms: _884  and  _885
REMARK  267  A    between atoms: _884  and  _887
REMARK  268  A    between atoms: _887  and  _888
REMARK  269  A    between atoms: _895  and  _896
REMARK  270  A    between atoms: _896  and  _897
REMARK  271  A    between atoms: _896  and  _899
REMARK  272  A    between atoms: _899  and  _900
REMARK  273  A    between atoms: _906  and  _907
REMARK  274  A    between atoms: _907  and  _908
REMARK  275  A    between atoms: _913  and  _914
REMARK  276  A    between atoms: _914  and  _915
REMARK  277  A    between atoms: _914  and  _917
REMARK  278  A    between atoms: _917  and  _918
REMARK  279  A    between atoms: _918  and  _919
REMARK  280  A    between atoms: _919  and  _920
REMARK  281  A    between atoms: _920  and  _921
REMARK  282  A    between atoms: _935  and  _936
REMARK  283  A    between atoms: _936  and  _937
REMARK  284  A    between atoms: _936  and  _939
REMARK  285  A    between atoms: _939  and  _940
REMARK  286  A    between atoms: _940  and  _941
REMARK  287  A    between atoms: _950  and  _951
REMARK  288  A    between atoms: _951  and  _952
REMARK  289  A    between atoms: _951  and  _954
REMARK  290  A    between atoms: _954  and  _955
REMARK  291  A    between atoms: _955  and  _956
REMARK  292  A    between atoms: _955  and  _957
REMARK  293  A    between atoms: _969  and  _970
REMARK  294  A    between atoms: _970  and  _971
REMARK  295  A    between atoms: _970  and  _973
REMARK  296  A    between atoms: _973  and  _974
REMARK  297  A    between atoms: _986  and  _987
REMARK  298  A    between atoms: _987  and  _988
REMARK  299  A    between atoms: _987  and  _990
REMARK  300  A    between atoms: _990  and  _991
REMARK  301  A    between atoms: _990  and  _992
REMARK  302  A    between atoms: _991  and  _993
REMARK  303  A    between atoms: _1005  and  _1006
REMARK  304  A    between atoms: _1006  and  _1007
REMARK  305  A    between atoms: _1006  and  _1009
REMARK  306  A    between atoms: _1009  and  _1010
REMARK  307  A    between atoms: _1019  and  _1020
REMARK  308  A    between atoms: _1020  and  _1021
REMARK  309  A    between atoms: _1020  and  _1023
REMARK  310  A    between atoms: _1023  and  _1024
REMARK  311  A    between atoms: _1024  and  _1025
REMARK  312  A    between atoms: _1024  and  _1026
REMARK  313  A    between atoms: _1038  and  _1039
REMARK  314  A    between atoms: _1039  and  _1040
REMARK  315  A    between atoms: _1039  and  _1042
REMARK  316  A    between atoms: _1042  and  _1043
REMARK  317  A    between atoms: _1042  and  _1044
REMARK  318  A    between atoms: _1043  and  _1045
REMARK  319  A    between atoms: _1058  and  _1059
REMARK  320  A    between atoms: _1071  and  _1072
REMARK  321  A    between atoms: _1072  and  _1073
REMARK  322  A    between atoms: _1072  and  _1075
REMARK  323  A    between atoms: _1075  and  _1076
REMARK  324  A    between atoms: _1085  and  _1086
REMARK  325  A    between atoms: _1086  and  _1087
REMARK  326  A    between atoms: _1086  and  _1089
REMARK  327  A    between atoms: _1089  and  _1090
REMARK  328  A    between atoms: _1090  and  _1091
REMARK  329  A    between atoms: _1091  and  _1092
REMARK  330  A    between atoms: _1092  and  _1093
REMARK  331  A    between atoms: _1107  and  _1108
REMARK  332  A    between atoms: _1108  and  _1109
REMARK  333  A    between atoms: _1108  and  _1111
REMARK  334  A    between atoms: _1111  and  _1112
REMARK  335  A    between atoms: _1112  and  _1113
REMARK  336  A    between atoms: _1124  and  _1125
REMARK  337  A    between atoms: _1125  and  _1126
REMARK  338  A    between atoms: _1125  and  _1128
REMARK  339  A    between atoms: _1128  and  _1129
REMARK  340  A    between atoms: _1136  and  _1137
REMARK  341  A    between atoms: _1137  and  _1138
REMARK  342  A    between atoms: _1137  and  _1140
REMARK  343  A    between atoms: _1140  and  _1141
REMARK  344  A    between atoms: _1141  and  _1142
REMARK  345  A    between atoms: _1142  and  _1143
REMARK  346  A    between atoms: _1160  and  _1161
REMARK  347  A    between atoms: _1161  and  _1162
REMARK  348  A    between atoms: _1161  and  _1164
REMARK  349  A    between atoms: _1164  and  _1165
REMARK  350  A    between atoms: _1164  and  _1166
REMARK  351  A    between atoms: _1174  and  _1175
REMARK  352  A    between atoms: _1175  and  _1176
REMARK  353  A    between atoms: _1175  and  _1178
REMARK  354  A    between atoms: _1178  and  _1179
REMARK  355  A    between atoms: _1179  and  _1180
REMARK  356  A    between atoms: _1179  and  _1181
REMARK  357  A    between atoms: _1193  and  _1194
REMARK  358  A    between atoms: _1194  and  _1195
REMARK  359  A    between atoms: _1194  and  _1197
REMARK  360  A    between atoms: _1197  and  _1198
REMARK  361  A    between atoms: _1197  and  _1199
REMARK  362  A    between atoms: _1207  and  _1208
REMARK  363  A    between atoms: _1208  and  _1209
REMARK  364  A    between atoms: _1208  and  _1211
REMARK  365  A    between atoms: _1211  and  _1212
REMARK  366  A    between atoms: _1211  and  _1213
REMARK  367  A    between atoms: _1212  and  _1214
REMARK  368  A    between atoms: _1226  and  _1227
REMARK  369  A    between atoms: _1227  and  _1228
REMARK  370  A    between atoms: _1227  and  _1230
REMARK  371  A    between atoms: _1230  and  _1231
REMARK  372  A    between atoms: _1230  and  _1232
REMARK  373  A    between atoms: _1242  and  _1243
REMARK  374  A    between atoms: _1243  and  _1244
REMARK  375  A    between atoms: _1243  and  _1246
REMARK  376  A    between atoms: _1246  and  _1247
REMARK  377  A    between atoms: _1254  and  _1255
REMARK  378  A    between atoms: _1255  and  _1256
REMARK  379  A    between atoms: _1255  and  _1258
REMARK  380  A    between atoms: _1258  and  _1259
REMARK  381  A    between atoms: _1258  and  _1260
REMARK  382  A    between atoms: _1268  and  _1269
REMARK  383  A    between atoms: _1269  and  _1270
REMARK  384  A    between atoms: _1275  and  _1276
REMARK  385  A    between atoms: _1276  and  _1277
REMARK  386  A    between atoms: _1276  and  _1279
REMARK  387  A    between atoms: _1279  and  _1280
REMARK  388  A    between atoms: _1279  and  _1281
REMARK  389  A    between atoms: _1280  and  _1282
REMARK  390  A    between atoms: _1294  and  _1295
REMARK  391  A    between atoms: _1295  and  _1296
REMARK  392  A    between atoms: _1301  and  _1302
REMARK  393  A    between atoms: _1302  and  _1303
REMARK  394  A    between atoms: _1302  and  _1305
REMARK  395  A    between atoms: _1305  and  _1306
REMARK  396  A    between atoms: _1306  and  _1307
REMARK  397  A    between atoms: _1307  and  _1308
REMARK  398  A    between atoms: _1318  and  _1319
REMARK  399  A    between atoms: _1319  and  _1320
REMARK  400  A    between atoms: _1319  and  _1322
REMARK  401  A    between atoms: _1322  and  _1323
REMARK  402  A    between atoms: _1322  and  _1324
REMARK  403  A    between atoms: _1332  and  _1333
REMARK  404  A    between atoms: _1333  and  _1334
REMARK  405  A    between atoms: _1333  and  _1336
REMARK  406  A    between atoms: _1336  and  _1337
REMARK  407  A    between atoms: _1337  and  _1338
REMARK  408  A    between atoms: _1338  and  _1339
REMARK  409  A    between atoms: _1339  and  _1340
REMARK  410  A    between atoms: _1354  and  _1355
REMARK  411  A    between atoms: _1355  and  _1356
REMARK  412  A    between atoms: _1355  and  _1358
REMARK  413  A    between atoms: _1364  and  _1365
REMARK  414  A    between atoms: _1365  and  _1366
REMARK  415  A    between atoms: _1365  and  _1368
REMARK  416  A    between atoms: _1368  and  _1369
REMARK  417  A    between atoms: _1376  and  _1377
REMARK  418  A    between atoms: _1377  and  _1378
REMARK  419  A    between atoms: _1377  and  _1380
REMARK  420  A    between atoms: _1380  and  _1381
REMARK  421  A    between atoms: _1381  and  _1382
REMARK  422  A    between atoms: _1381  and  _1383
REMARK  423  A    between atoms: _1395  and  _1396
REMARK  424  A    between atoms: _1396  and  _1399
REMARK  425  A    between atoms: _1399  and  _1400
REMARK  426  A    between atoms: _1399  and  _1401
REMARK  427  A    between atoms: _1400  and  _1402
REMARK  428  A    between atoms: _1422  and  _1425
REMARK  429  A    between atoms: _1424  and  _1428
REMARK  430  A    between atoms: _1425  and  _1427
REMARK  431  A    between atoms: _1443  and  _1444
REMARK  432  A    between atoms: _1443  and  _1446
REMARK  433  A    between atoms: _1446  and  _1447
REMARK  434  A    between atoms: _1457  and  _1458
REMARK  435  A    between atoms: _1458  and  _1459
REMARK  436  A    between atoms: _1458  and  _1461
REMARK  437  A    between atoms: _1461  and  _1462
REMARK  438  A    between atoms: _1462  and  _1463
REMARK  439  A    between atoms: _1462  and  _1464
REMARK  440  A    between atoms: _1476  and  _1477
REMARK  441  A    between atoms: _1477  and  _1478
REMARK  442  A    between atoms: _1483  and  _1484
REMARK  443  A    between atoms: _1484  and  _1485
REMARK  444  A    between atoms: _1484  and  _1487
REMARK  445  A    between atoms: _1487  and  _1488
REMARK  446  A    between atoms: _1487  and  _1489
REMARK  447  A    between atoms: _1497  and  _1498
REMARK  448  A    between atoms: _1498  and  _1499
REMARK  449  A    between atoms: _1498  and  _1501
REMARK  450  A    between atoms: _1501  and  _1502
REMARK  451  A    between atoms: _1501  and  _1503
REMARK  452  A    between atoms: _1502  and  _1504
REMARK  453  A    between atoms: _1516  and  _1517
REMARK  454  A    between atoms: _1517  and  _1518
REMARK  455  A    between atoms: _1517  and  _1520
REMARK  456  A    between atoms: _1526  and  _1527
REMARK  457  A    between atoms: _1527  and  _1528
REMARK  458  A    between atoms: _1527  and  _1530
REMARK  459  A    between atoms: _1530  and  _1531
REMARK  460  A    between atoms: _1531  and  _1532
REMARK  461  A    between atoms: _1532  and  _1533
REMARK  462  A    between atoms: _1533  and  _1534
REMARK  463  A    between atoms: _1548  and  _1549
REMARK  464  A    between atoms: _1549  and  _1550
REMARK  465  A    between atoms: _1549  and  _1552
REMARK  466  A    between atoms: _1552  and  _1553
REMARK  467  A    between atoms: _1559  and  _1560
REMARK  468  A    between atoms: _1560  and  _1561
REMARK  469  A    between atoms: _1566  and  _1567
REMARK  470  A    between atoms: _1567  and  _1568
REMARK  471  A    between atoms: _1567  and  _1570
REMARK  472  A    between atoms: _1570  and  _1571
REMARK  473  A    between atoms: _1570  and  _1572
REMARK  474  A    between atoms: _1580  and  _1581
REMARK  475  A    between atoms: _1581  and  _1582
REMARK  476  A    between atoms: _1581  and  _1584
REMARK  477  A    between atoms: _1584  and  _1585
REMARK  478  A    between atoms: _1585  and  _1586
REMARK  479  A    between atoms: _1586  and  _1587
REMARK  480  A    between atoms: _1587  and  _1588
REMARK  481  A    between atoms: _1602  and  _1603
REMARK  482  A    between atoms: _1603  and  _1604
REMARK  483  A    between atoms: _1603  and  _1606
REMARK  484  A    between atoms: _1612  and  _1613
REMARK  485  A    between atoms: _1613  and  _1614
REMARK  486  A    between atoms: _1613  and  _1616
REMARK  487  A    between atoms: _1616  and  _1617
REMARK  488  A    between atoms: _1632  and  _1633
REMARK  489  A    between atoms: _1633  and  _1634
REMARK  490  A    between atoms: _1633  and  _1636
REMARK  491  A    between atoms: _1636  and  _1637
REMARK  492  A    between atoms: _1637  and  _1638
REMARK  493  A    between atoms: _1638  and  _1639
REMARK  494  A    between atoms: _1649  and  _1650
REMARK  495  A    between atoms: _1650  and  _1651
REMARK  496  A    between atoms: _1650  and  _1653
REMARK  497  A    between atoms: _1653  and  _1654
REMARK  498  A    between atoms: _1654  and  _1655
REMARK  499  A    between atoms: _1664  and  _1665
REMARK  500  A    between atoms: _1665  and  _1666
REMARK  501  A    between atoms: _1665  and  _1668
REMARK  502  A    between atoms: _1674  and  _1675
REMARK  503  A    between atoms: _1675  and  _1676
REMARK  504  A    between atoms: _1675  and  _1678
REMARK  505  A    between atoms: _1678  and  _1679
REMARK  506  A    between atoms: _1679  and  _1680
REMARK  507  A    between atoms: _1679  and  _1681
REMARK  508  A    between atoms: _1693  and  _1694
REMARK  509  A    between atoms: _1694  and  _1695
REMARK  510  A    between atoms: _1694  and  _1697
REMARK  511  A    between atoms: _1697  and  _1698
REMARK  512  A    between atoms: _1698  and  _1699
REMARK  513  A    between atoms: _1710  and  _1711
REMARK  514  A    between atoms: _1711  and  _1712
REMARK  515  A    between atoms: _1711  and  _1714
REMARK  516  A    between atoms: _1720  and  _1721
REMARK  517  A    between atoms: _1721  and  _1722
REMARK  518  A    between atoms: _1727  and  _1728
REMARK  519  A    between atoms: _1728  and  _1729
REMARK  520  A    between atoms: _1728  and  _1731
REMARK  521  A    between atoms: _1737  and  _1738
REMARK  522  A    between atoms: _1738  and  _1739
REMARK  523  A    between atoms: _1738  and  _1741
REMARK  524  A    between atoms: _1741  and  _1742
REMARK  525  A    between atoms: _1749  and  _1750
REMARK  526  A    between atoms: _1750  and  _1751
REMARK  527  A    between atoms: _1750  and  _1753
REMARK  528  A    between atoms: _1753  and  _1754
REMARK  529  A    between atoms: _1753  and  _1755
REMARK  530  A    between atoms: _1754  and  _1756
REMARK  531  A    between atoms: _1768  and  _1769
REMARK  532  A    between atoms: _1769  and  _1772
REMARK  533  A    between atoms: _1772  and  _1773
REMARK  534  A    between atoms: _1791  and  _1793
REMARK  535  A    between atoms: _1792  and  _1794
REMARK  536  A    between atoms: _1814  and  _1815
REMARK  537  A    between atoms: _1814  and  _1817
REMARK  538  A    between atoms: _1817  and  _1818
REMARK  539  A    between atoms: _1817  and  _1819
REMARK  540  A    between atoms: _1818  and  _1820
REMARK  541  A    between atoms: _1833  and  _1834
REMARK  542  A    between atoms: _1834  and  _1835
REMARK  543  A    between atoms: _1840  and  _1841
REMARK  544  A    between atoms: _1841  and  _1842
REMARK  545  A    between atoms: _1841  and  _1844
REMARK  546  A    between atoms: _1844  and  _1845
REMARK  547  A    between atoms: _1845  and  _1846
REMARK  548  A    between atoms: _1857  and  _1858
REMARK  549  A    between atoms: _1858  and  _1859
REMARK  550  A    between atoms: _1858  and  _1861
REMARK  551  A    between atoms: _1861  and  _1862
REMARK  552  A    between atoms: _1877  and  _1878
REMARK  553  A    between atoms: _1878  and  _1879
REMARK  554  A    between atoms: _1884  and  _1885
REMARK  555  A    between atoms: _1885  and  _1886
REMARK  556  A    between atoms: _1885  and  _1888
REMARK  557  A    between atoms: _1888  and  _1889
REMARK  558  A    between atoms: _1888  and  _1890
REMARK  559  A    between atoms: _1900  and  _1901
REMARK  560  A    between atoms: _1901  and  _1902
REMARK  561  A    between atoms: _1907  and  _1908
REMARK  562  A    between atoms: _1908  and  _1909
REMARK  563  A    between atoms: _1908  and  _1911
REMARK  564  A    between atoms: _1911  and  _1912
REMARK  565  A    between atoms: _1927  and  _1928
REMARK  566  A    between atoms: _1928  and  _1929
REMARK  567  A    between atoms: _1928  and  _1931
REMARK  568  A    between atoms: _1931  and  _1932
REMARK  569  A    between atoms: _1937  and  _1938
REMARK  570  A    between atoms: _1948  and  _1949
REMARK  571  A    between atoms: _1949  and  _1950
REMARK  572  A    between atoms: _1949  and  _1952
REMARK  573  A    between atoms: _1952  and  _1953
REMARK  574  A    between atoms: _1959  and  _1960
REMARK  575  A    between atoms: _1960  and  _1961
REMARK  576  A    between atoms: _1960  and  _1963
REMARK  577  A    between atoms: _1969  and  _1970
REMARK  578  A    between atoms: _1970  and  _1971
REMARK  579  A    between atoms: _1970  and  _1973
REMARK  580  A    between atoms: _1973  and  _1974
REMARK  581  A    between atoms: _1979  and  _1980
REMARK  582  A    between atoms: _1990  and  _1991
REMARK  583  A    between atoms: _1991  and  _1992
REMARK  584  A    between atoms: _1991  and  _1994
REMARK  585  A    between atoms: _1994  and  _1995
REMARK  586  A    between atoms: _1995  and  _1996
REMARK  587  A    between atoms: _1995  and  _1997
REMARK  588  A    between atoms: _2009  and  _2010
REMARK  589  A    between atoms: _2010  and  _2011
REMARK  590  A    between atoms: _2010  and  _2013
REMARK  591  A    between atoms: _2013  and  _2014
REMARK  592  A    between atoms: _2013  and  _2015
REMARK  593  A    between atoms: _2025  and  _2026
REMARK  594  A    between atoms: _2026  and  _2027
REMARK  595  A    between atoms: _2026  and  _2029
REMARK  596  A    between atoms: _2035  and  _2036
REMARK  597  A    between atoms: _2036  and  _2037
REMARK  598  A    between atoms: _2036  and  _2039
REMARK  599  A    between atoms: _2039  and  _2040
REMARK  600  A    between atoms: _2040  and  _2041
REMARK  601  A    between atoms: _2050  and  _2051
REMARK  602  A    between atoms: _2051  and  _2052
REMARK  603  A    between atoms: _2051  and  _2054
REMARK  604  A    between atoms: _2054  and  _2055
REMARK  605  A    between atoms: _2055  and  _2056
REMARK  606  A    between atoms: _2056  and  _2057
REMARK  607  A    between atoms: _2057  and  _2058
REMARK  608  A    between atoms: _2072  and  _2073
REMARK  609  A    between atoms: _2073  and  _2074
REMARK  610  A    between atoms: _2073  and  _2076
REMARK  611  A    between atoms: _2076  and  _2077
REMARK  612  A    between atoms: _2076  and  _2078
REMARK  613  A    between atoms: _2088  and  _2089
REMARK  614  A    between atoms: _2089  and  _2090
REMARK  615  A    between atoms: _2089  and  _2092
REMARK  616  A    between atoms: _2092  and  _2093
REMARK  617  A    between atoms: _2092  and  _2094
REMARK  618  A    between atoms: _2102  and  _2103
REMARK  619  A    between atoms: _2103  and  _2104
REMARK  620  A    between atoms: _2103  and  _2106
REMARK  621  A    between atoms: _2106  and  _2107
REMARK  622  A    between atoms: _2106  and  _2108
REMARK  623  A    between atoms: _2118  and  _2119
REMARK  624  A    between atoms: _2119  and  _2120
REMARK  625  A    between atoms: _2119  and  _2122
REMARK  626  A    between atoms: _2122  and  _2123
REMARK  627  A    between atoms: _2122  and  _2124
REMARK  628  A    between atoms: _2123  and  _2125
REMARK  629  A    between atoms: _2137  and  _2138
REMARK  630  A    between atoms: _2138  and  _2139
REMARK  631  A    between atoms: _2138  and  _2141
REMARK  632  A    between atoms: _2141  and  _2142
REMARK  633  A    between atoms: _2141  and  _2143
REMARK  634  A    between atoms: _2151  and  _2152
REMARK  635  A    between atoms: _2152  and  _2153
REMARK  636  A    between atoms: _2152  and  _2155
REMARK  637  A    between atoms: _2155  and  _2156
REMARK  638  A    between atoms: _2156  and  _2157
REMARK  639  A    between atoms: _2157  and  _2158
REMARK  640  A    between atoms: _2158  and  _2159
REMARK  641  A    between atoms: _2173  and  _2174
REMARK  642  A    between atoms: _2174  and  _2175
REMARK  643  A    between atoms: _2174  and  _2177
REMARK  644  A    between atoms: _2177  and  _2178
REMARK  645  A    between atoms: _2190  and  _2191
REMARK  646  A    between atoms: _2191  and  _2192
REMARK  647  A    between atoms: _2191  and  _2194
REMARK  648  A    between atoms: _2194  and  _2195
REMARK  649  A    between atoms: _2204  and  _2205
REMARK  650  A    between atoms: _2205  and  _2206
REMARK  651  A    between atoms: _2205  and  _2208
REMARK  652  A    between atoms: _2208  and  _2209
REMARK  653  A    between atoms: _2216  and  _2217
REMARK  654  A    between atoms: _2217  and  _2218
REMARK  655  A    between atoms: _2217  and  _2220
REMARK  656  A    between atoms: _2220  and  _2221
REMARK  657  A    between atoms: _2228  and  _2229
REMARK  658  A    between atoms: _2229  and  _2230
REMARK  659  A    between atoms: _2229  and  _2232
REMARK  660  A    between atoms: _2232  and  _2233
REMARK  661  A    between atoms: _2233  and  _2234
REMARK  662  A    between atoms: _2243  and  _2244
REMARK  663  A    between atoms: _2244  and  _2245
REMARK  664  A    between atoms: _2244  and  _2247
REMARK  665  A    between atoms: _2247  and  _2248
REMARK  666  A    between atoms: _2248  and  _2249
REMARK  667  A    between atoms: _2260  and  _2261
REMARK  668  A    between atoms: _2261  and  _2262
REMARK  669  A    between atoms: _2261  and  _2264
REMARK  670  A    between atoms: _2264  and  _2265
REMARK  671  A    between atoms: _2270  and  _2271
REMARK  672  A    between atoms: _2281  and  _2282
REMARK  673  A    between atoms: _2282  and  _2283
REMARK  674  A    between atoms: _2282  and  _2285
REMARK  675  A    between atoms: _2291  and  _2292
REMARK  676  A    between atoms: _2292  and  _2293
REMARK  677  A    between atoms: _2292  and  _2295
REMARK  678  A    between atoms: _2295  and  _2296
REMARK  679  A    between atoms: _2315  and  _2316
REMARK  680  A    between atoms: _2316  and  _2317
REMARK  681  A    between atoms: _2316  and  _2319
REMARK  682  A    between atoms: _2319  and  _2320
REMARK  683  A    between atoms: _2320  and  _2321
REMARK  684  A    between atoms: _2330  and  _2331
REMARK  685  A    between atoms: _2331  and  _2332
REMARK  686  A    between atoms: _2331  and  _2334
REMARK  687  A    between atoms: _2334  and  _2335
REMARK  688  A    between atoms: _2341  and  _2342
REMARK  689  A    between atoms: _2342  and  _2343
REMARK  690  A    between atoms: _2342  and  _2345
REMARK  691  A    between atoms: _2345  and  _2346
REMARK  692  A    between atoms: _2352  and  _2353
REMARK  693  A    between atoms: _2353  and  _2354
REMARK  694  A    between atoms: _2353  and  _2356
REMARK  695  A    between atoms: _2362  and  _2363
REMARK  696  A    between atoms: _2363  and  _2364
REMARK  697  A    between atoms: _2369  and  _2370
REMARK  698  A    between atoms: _2370  and  _2371
REMARK  699  A    between atoms: _2376  and  _2377
REMARK  700  A    between atoms: _2377  and  _2378
REMARK  701  A    between atoms: _2377  and  _2380
REMARK  702  A    between atoms: _2380  and  _2381
REMARK  703  A    between atoms: _2387  and  _2388
REMARK  704  A    between atoms: _2388  and  _2389
REMARK  705  A    between atoms: _2388  and  _2391
REMARK  706  A    between atoms: _2391  and  _2392
REMARK  707  A    between atoms: _2407  and  _2408
REMARK  708  A    between atoms: _2408  and  _2409
REMARK  709  A    between atoms: _2408  and  _2411
REMARK  710  A    between atoms: _2411  and  _2412
REMARK  711  A    between atoms: _2411  and  _2413
REMARK  712  A    between atoms: _2421  and  _2422
REMARK  713  A    between atoms: _2422  and  _2423
REMARK  714  A    between atoms: _2422  and  _2425
REMARK  715  A    between atoms: _2425  and  _2426
REMARK  716  A    between atoms: _2425  and  _2427
REMARK  717  A    between atoms: _2437  and  _2438
REMARK  718  A    between atoms: _2438  and  _2439
REMARK  719  A    between atoms: _2438  and  _2441
REMARK  720  A    between atoms: _2441  and  _2442
REMARK  721  A    between atoms: _2442  and  _2443
REMARK  722  A    between atoms: _2443  and  _2444
REMARK  723  A    between atoms: _2461  and  _2462
REMARK  724  A    between atoms: _2462  and  _2463
REMARK  725  A    between atoms: _2462  and  _2465
REMARK  726  A    between atoms: _2465  and  _2466
REMARK  727  A    between atoms: _2465  and  _2467
REMARK  728  A    between atoms: _2475  and  _2476
REMARK  729  A    between atoms: _2476  and  _2477
REMARK  730  A    between atoms: _2476  and  _2479
REMARK  731  A    between atoms: _2479  and  _2480
REMARK  732  A    between atoms: _2487  and  _2488
REMARK  733  A    between atoms: _2488  and  _2489
REMARK  734  A    between atoms: _2488  and  _2491
REMARK  735  A    between atoms: _2491  and  _2492
REMARK  736  A    between atoms: _2491  and  _2493
REMARK  737  A    between atoms: _2501  and  _2502
REMARK  738  A    between atoms: _2502  and  _2503
REMARK  739  A    between atoms: _2508  and  _2509
REMARK  740  A    between atoms: _2509  and  _2510
REMARK  741  A    between atoms: _2509  and  _2512
REMARK  742  A    between atoms: _2512  and  _2513
REMARK  743  A    between atoms: _2513  and  _2514
REMARK  744  A    between atoms: _2524  and  _2525
REMARK  745  A    between atoms: _2537  and  _2538
REMARK  746  A    between atoms: _2538  and  _2539
REMARK  747  A    between atoms: _2538  and  _2541
REMARK  748  A    between atoms: _2541  and  _2542
REMARK  749  A    between atoms: _2542  and  _2543
REMARK  750  A    between atoms: _2543  and  _2544
REMARK  751  A    between atoms: _2554  and  _2555
REMARK  752  A    between atoms: _2555  and  _2556
REMARK  753  A    between atoms: _2561  and  _2562
REMARK  754  A    between atoms: _2562  and  _2563
REMARK  755  A    between atoms: _2562  and  _2565
REMARK  756  A    between atoms: _2565  and  _2566
REMARK  757  A    between atoms: _2566  and  _2567
REMARK  758  A    between atoms: _2567  and  _2568
REMARK  759  A    between atoms: _2585  and  _2586
REMARK  760  A    between atoms: _2586  and  _2587
REMARK  761  A    between atoms: _2592  and  _2593
REMARK  762  A    between atoms: _2593  and  _2594
REMARK  763  A    between atoms: _2593  and  _2596
REMARK  764  A    between atoms: _2596  and  _2597
REMARK  765  A    between atoms: _2596  and  _2598
REMARK  766  A    between atoms: _2606  and  _2607
REMARK  767  A    between atoms: _2607  and  _2608
REMARK  768  A    between atoms: _2607  and  _2610
REMARK  769  A    between atoms: _2610  and  _2611
REMARK  770  A    between atoms: _2611  and  _2612
REMARK  771  A    between atoms: _2612  and  _2613
REMARK  772  A    between atoms: _2613  and  _2614
REMARK  773  A    between atoms: _2628  and  _2629
REMARK  774  A    between atoms: _2629  and  _2630
REMARK  775  A    between atoms: _2629  and  _2632
REMARK  776  A    between atoms: _2632  and  _2633
REMARK  777  A    between atoms: _2632  and  _2634
REMARK  778  A    between atoms: _2644  and  _2645
REMARK  779  A    between atoms: _2645  and  _2646
REMARK  780  A    between atoms: _2645  and  _2648
REMARK  781  A    between atoms: _2648  and  _2649
REMARK  782  A    between atoms: _2648  and  _2650
REMARK  783  A    between atoms: _2649  and  _2651
REMARK  784  A    between atoms: _2663  and  _2664
REMARK  785  A    between atoms: _2664  and  _2665
REMARK  786  A    between atoms: _2664  and  _2667
REMARK  787  A    between atoms: _2667  and  _2668
REMARK  788  A    between atoms: _2668  and  _2669
REMARK  789  A    between atoms: _2668  and  _2670
REMARK  790  A    between atoms: _2682  and  _2683
REMARK  791  A    between atoms: _2683  and  _2684
REMARK  792  A    between atoms: _2683  and  _2686
REMARK  793  A    between atoms: _2686  and  _2687
REMARK  794  A    between atoms: _2699  and  _2700
REMARK  795  A    between atoms: _2700  and  _2701
REMARK  796  A    between atoms: _2700  and  _2703
REMARK  797  A    between atoms: _2703  and  _2704
REMARK  798  A    between atoms: _2704  and  _2705
REMARK  799  A    between atoms: _2704  and  _2706
REMARK  800  A    between atoms: _2718  and  _2719
REMARK  801  A    between atoms: _2719  and  _2720
REMARK  802  A    between atoms: _2719  and  _2722
REMARK  803  A    between atoms: _2722  and  _2723
REMARK  804  A    between atoms: _2723  and  _2724
REMARK  805  A    between atoms: _2724  and  _2725
REMARK  806  A    between atoms: _2725  and  _2726
REMARK  807  A    between atoms: _2740  and  _2741
REMARK  808  A    between atoms: _2741  and  _2742
REMARK  809  A    between atoms: _2741  and  _2744
REMARK  810  A    between atoms: _2744  and  _2745
REMARK  811  A    between atoms: _2745  and  _2746
REMARK  812  A    between atoms: _2755  and  _2756
REMARK  813  A    between atoms: _2756  and  _2757
REMARK  814  A    between atoms: _2756  and  _2759
REMARK  815  A    between atoms: _2759  and  _2760
REMARK  816  A    between atoms: _2767  and  _2768
REMARK  817  A    between atoms: _2768  and  _2769
REMARK  818  A    between atoms: _2768  and  _2771
REMARK  819  A    between atoms: _2771  and  _2772
REMARK  820  A    between atoms: _2772  and  _2773
REMARK  821  A    between atoms: _2784  and  _2785
REMARK  822  A    between atoms: _2785  and  _2786
REMARK  823  A    between atoms: _2785  and  _2788
REMARK  824  A    between atoms: _2788  and  _2789
REMARK  825  A    between atoms: _2788  and  _2790
REMARK  826  A    between atoms: _2798  and  _2799
REMARK  827  A    between atoms: _2799  and  _2800
REMARK  828  A    between atoms: _2799  and  _2802
REMARK  829  A    between atoms: _2802  and  _2803
REMARK  830  A    between atoms: _2803  and  _2804
REMARK  831  A    between atoms: _2813  and  _2814
REMARK  832  A    between atoms: _2814  and  _2815
REMARK  833  A    between atoms: _2814  and  _2817
REMARK  834  A    between atoms: _2817  and  _2818
REMARK  835  A    between atoms: _2823  and  _2824
REMARK  836  A    between atoms: _2834  and  _2835
REMARK  837  A    between atoms: _2835  and  _2838
REMARK  838  A    between atoms: _2838  and  _2839
REMARK  839  A    between atoms: _2839  and  _2840
REMARK  840  A    between atoms: _2839  and  _2841
REMARK  841  A    between atoms: _2884  and  _2885
REMARK  842  A    between atoms: _2884  and  _2887
REMARK  843  A    between atoms: _2887  and  _2888
REMARK  844  A    between atoms: _2888  and  _2889
REMARK  845  A    between atoms: _2899  and  _2900
REMARK  846  A    between atoms: _2900  and  _2901
REMARK  847  A    between atoms: _2900  and  _2903
REMARK  848  A    between atoms: _2903  and  _2904
REMARK  849  A    between atoms: _2904  and  _2905
REMARK  850  A    between atoms: _2905  and  _2906
REMARK  851  A    between atoms: _2923  and  _2924
REMARK  852  A    between atoms: _2924  and  _2925
REMARK  853  A    between atoms: _2924  and  _2927
REMARK  854  A    between atoms: _2927  and  _2928
REMARK  855  A    between atoms: _2928  and  _2929
REMARK  856  A    between atoms: _2929  and  _2930
REMARK  857  A    between atoms: _2947  and  _2948
REMARK  858  A    between atoms: _2948  and  _2949
REMARK  859  A    between atoms: _2948  and  _2951
REMARK  860  A    between atoms: _2951  and  _2952
REMARK  861  A    between atoms: _2951  and  _2953
REMARK  862  A    between atoms: _2952  and  _2954
REMARK  863  A    between atoms: _2966  and  _2967
REMARK  864  A    between atoms: _2967  and  _2968
REMARK  865  A    between atoms: _2967  and  _2970
REMARK  866  A    between atoms: _2970  and  _2971
REMARK  867  A    between atoms: _2971  and  _2972
REMARK  868  A    between atoms: _2972  and  _2973
REMARK  869  A    between atoms: _2973  and  _2974
REMARK  870  A    between atoms: _2988  and  _2989
REMARK  871  A    between atoms: _2989  and  _2990
REMARK  872  A    between atoms: _2989  and  _2992
REMARK  873  A    between atoms: _2992  and  _2993
REMARK  874  A    between atoms: _2993  and  _2994
REMARK  875  A    between atoms: _3003  and  _3004
REMARK  876  A    between atoms: _3004  and  _3005
REMARK  877  A    between atoms: _3004  and  _3007
REMARK  878  A    between atoms: _3007  and  _3008
REMARK  879  A    between atoms: _3007  and  _3009
REMARK  880  A    between atoms: _3008  and  _3010
REMARK  881  A    between atoms: _3022  and  _3023
REMARK  882  A    between atoms: _3023  and  _3024
REMARK  883  A    between atoms: _3023  and  _3026
REMARK  884  A    between atoms: _3026  and  _3027
REMARK  885  A    between atoms: _3026  and  _3028
REMARK  886  A    between atoms: _3038  and  _3039
REMARK  887  A    between atoms: _3039  and  _3040
REMARK  888  A    between atoms: _3039  and  _3042
REMARK  889  A    between atoms: _3042  and  _3043
REMARK  890  A    between atoms: _3043  and  _3044
REMARK  891  A    between atoms: _3044  and  _3045
REMARK  892  A    between atoms: _3045  and  _3046
REMARK  893  A    between atoms: _3060  and  _3061
REMARK  894  A    between atoms: _3061  and  _3062
REMARK  895  A    between atoms: _3061  and  _3064
REMARK  896  A    between atoms: _3064  and  _3065
REMARK  897  A    between atoms: _3065  and  _3066
REMARK  898  A    between atoms: _3066  and  _3067
REMARK  899  A    between atoms: _3067  and  _3068
REMARK  900  A    between atoms: _3082  and  _3083
REMARK  901  A    between atoms: _3083  and  _3084
REMARK  902  A    between atoms: _3083  and  _3086
REMARK  903  A    between atoms: _3086  and  _3087
REMARK  904  A    between atoms: _3099  and  _3100
REMARK  905  A    between atoms: _3100  and  _3101
REMARK  906  A    between atoms: _3100  and  _3103
REMARK  907  A    between atoms: _3103  and  _3104
REMARK  908  A    between atoms: _3110  and  _3111
REMARK  909  A    between atoms: _3111  and  _3112
REMARK  910  A    between atoms: _3111  and  _3114
REMARK  911  A    between atoms: _3114  and  _3115
REMARK  912  A    between atoms: _3115  and  _3116
REMARK  913  A    between atoms: _3127  and  _3128
REMARK  914  A    between atoms: _3128  and  _3129
REMARK  915  A    between atoms: _3128  and  _3131
REMARK  916  A    between atoms: _3131  and  _3132
REMARK  917  A    between atoms: _3147  and  _3148
REMARK  918  A    between atoms: _3148  and  _3149
REMARK  919  A    between atoms: _3148  and  _3151
REMARK  920  A    between atoms: _3151  and  _3152
REMARK  921  A    between atoms: _3151  and  _3153
REMARK  922  A    between atoms: _3152  and  _3154
REMARK  923  A    between atoms: _3166  and  _3167
REMARK  924  A    between atoms: _3167  and  _3168
REMARK  925  A    between atoms: _3173  and  _3174
REMARK  926  A    between atoms: _3174  and  _3175
REMARK  927  A    between atoms: _3174  and  _3177
REMARK  928  A    between atoms: _3177  and  _3178
REMARK  929  A    between atoms: _3183  and  _3184
REMARK  930  A    between atoms: _3195  and  _3196
REMARK  931  A    between atoms: _3208  and  _3209
REMARK  932  A    between atoms: _3209  and  _3210
REMARK  933  A    between atoms: _3209  and  _3212
REMARK  934  A    between atoms: _3212  and  _3213
REMARK  935  A    between atoms: _3212  and  _3214
REMARK  936  A    between atoms: _3213  and  _3215
REMARK  937  A    between atoms: _3227  and  _3228
REMARK  938  A    between atoms: _3228  and  _3229
REMARK  939  A    between atoms: _3228  and  _3231
REMARK  940  A    between atoms: _3231  and  _3232
REMARK  941  A    between atoms: _3231  and  _3233
REMARK  942  A    between atoms: _3241  and  _3242
REMARK  943  A    between atoms: _3242  and  _3243
REMARK  944  A    between atoms: _3242  and  _3245
REMARK  945  A    between atoms: _3245  and  _3246
REMARK  946  A    between atoms: _3246  and  _3247
REMARK  947  A    between atoms: _3246  and  _3248
REMARK  948  A    between atoms: _3260  and  _3261
REMARK  949  A    between atoms: _3261  and  _3262
REMARK  950  A    between atoms: _3261  and  _3264
REMARK  951  A    between atoms: _3264  and  _3265
REMARK  952  A    between atoms: _3280  and  _3281
REMARK  953  A    between atoms: _3281  and  _3282
REMARK  954  A    between atoms: _3281  and  _3284
REMARK  955  A    between atoms: _3284  and  _3285
REMARK  956  A    between atoms: _3284  and  _3286
REMARK  957  A    between atoms: _3296  and  _3297
REMARK  958  A    between atoms: _3297  and  _3298
REMARK  959  A    between atoms: _3297  and  _3300
REMARK  960  A    between atoms: _3300  and  _3301
REMARK  961  A    between atoms: _3301  and  _3302
REMARK                            x       y       z     vdW  Elec       q    Type
REMARK                         _______ _______ _______ _____ _____    ______ ____
ROOT
ATOM      1  N   UNL     1      15.258  35.569  16.111  0.00  0.00    -0.300 NA
ATOM      2  H   UNL     1      16.150  36.033  16.250  0.00  0.00    +0.121 HD
ATOM      3  H   UNL     1      14.633  35.895  15.381  0.00  0.00    +0.121 HD
ENDROOT
BRANCH   1   4
ATOM      4  C   UNL     1      14.929  34.543  16.880  0.00  0.00    +0.269 C 
ATOM      5  O   UNL     1      15.719  34.094  17.725  0.00  0.00    -0.210 OA
ENDBRANCH   1   4
TORSDOF 1
REMARK  Name = /Users/mlugowska/PhD/ML_residence_time_prediction/protein_files/5J20_protein.pdb
REMARK  961 active torsions:
REMARK  status: ('A' for Active; 'I' for Inactive)
REMARK    1  A    between atoms: _2  and  _3
REMARK    2  A    between atoms: _2  and  _5
REMARK    3  A    between atoms: _10  and  _11
REMARK    4  A    between atoms: _11  and  _12
REMARK    5  A    between atoms: _11  and  _14
REMARK    6  A    between atoms: _14  and  _15
REMARK    7  A    between atoms: _14  and  _16
REMARK    8  A    between atoms: _26  and  _27
REMARK    9  A    between atoms: _27  and  _28
REMARK   10  A    between atoms: _27  and  _30
REMARK   11  A    between atoms: _30  and  _31
REMARK   12  A    between atoms: _31  and  _32
REMARK   13  A    between atoms: _41  and  _42
REMARK   14  A    between atoms: _42  and  _43
REMARK   15  A    between atoms: _42  and  _45
REMARK   16  A    between atoms: _45  and  _46
REMARK   17  A    between atoms: _45  and  _47
REMARK   18  A    between atoms: _55  and  _56
REMARK   19  A    between atoms: _56  and  _57
REMARK   20  A    between atoms: _56  and  _59
REMARK   21  A    between atoms: _59  and  _60
REMARK   22  A    between atoms: _75  and  _76
REMARK   23  A    between atoms: _76  and  _77
REMARK   24  A    between atoms: _76  and  _79
REMARK   25  A    between atoms: _85  and  _86
REMARK   26  A    between atoms: _86  and  _87
REMARK   27  A    between atoms: _86  and  _89
REMARK   28  A    between atoms: _89  and  _90
REMARK   29  A    between atoms: _105  and  _106
REMARK   30  A    between atoms: _106  and  _107
REMARK   31  A    between atoms: _106  and  _109
REMARK   32  A    between atoms: _109  and  _110
REMARK   33  A    between atoms: _110  and  _111
REMARK   34  A    between atoms: _122  and  _123
REMARK   35  A    between atoms: _123  and  _124
REMARK   36  A    between atoms: _123  and  _126
REMARK   37  A    between atoms: _132  and  _133
REMARK   38  A    between atoms: _133  and  _134
REMARK   39  A    between atoms: _133  and  _136
REMARK   40  A    between atoms: _136  and  _137
REMARK   41  A    between atoms: _137  and  _138
REMARK   42  A    between atoms: _147  and  _148
REMARK   43  A    between atoms: _148  and  _149
REMARK   44  A    between atoms: _148  and  _151
REMARK   45  A    between atoms: _151  and  _152
REMARK   46  A    between atoms: _151  and  _153
REMARK   47  A    between atoms: _152  and  _154
REMARK   48  A    between atoms: _166  and  _167
REMARK   49  A    between atoms: _167  and  _168
REMARK   50  A    between atoms: _167  and  _170
REMARK   51  A    between atoms: _176  and  _177
REMARK   52  A    between atoms: _177  and  _178
REMARK   53  A    between atoms: _177  and  _180
REMARK   54  A    between atoms: _180  and  _181
REMARK   55  A    between atoms: _181  and  _182
REMARK   56  A    between atoms: _193  and  _194
REMARK   57  A    between atoms: _194  and  _195
REMARK   58  A    between atoms: _194  and  _197
REMARK   59  A    between atoms: _197  and  _198
REMARK   60  A    between atoms: _198  and  _199
REMARK   61  A    between atoms: _198  and  _200
REMARK   62  A    between atoms: _212  and  _213
REMARK   63  A    between atoms: _213  and  _214
REMARK   64  A    between atoms: _213  and  _216
REMARK   65  A    between atoms: _216  and  _217
REMARK   66  A    between atoms: _217  and  _218
REMARK   67  A    between atoms: _218  and  _219
REMARK   68  A    between atoms: _229  and  _230
REMARK   69  A    between atoms: _230  and  _231
REMARK   70  A    between atoms: _230  and  _233
REMARK   71  A    between atoms: _233  and  _234
REMARK   72  A    between atoms: _240  and  _241
REMARK   73  A    between atoms: _241  and  _242
REMARK   74  A    between atoms: _241  and  _244
REMARK   75  A    between atoms: _244  and  _245
REMARK   76  A    between atoms: _245  and  _246
REMARK   77  A    between atoms: _245  and  _247
REMARK   78  A    between atoms: _259  and  _260
REMARK   79  A    between atoms: _260  and  _261
REMARK   80  A    between atoms: _260  and  _263
REMARK   81  A    between atoms: _263  and  _264
REMARK   82  A    between atoms: _263  and  _265
REMARK   83  A    between atoms: _264  and  _266
REMARK   84  A    between atoms: _278  and  _279
REMARK   85  A    between atoms: _279  and  _280
REMARK   86  A    between atoms: _279  and  _282
REMARK   87  A    between atoms: _282  and  _283
REMARK   88  A    between atoms: _282  and  _284
REMARK   89  A    between atoms: _283  and  _285
REMARK   90  A    between atoms: _297  and  _298
REMARK   91  A    between atoms: _298  and  _299
REMARK   92  A    between atoms: _298  and  _301
REMARK   93  A    between atoms: _301  and  _302
REMARK   94  A    between atoms: _311  and  _312
REMARK   95  A    between atoms: _312  and  _313
REMARK   96  A    between atoms: _312  and  _315
REMARK   97  A    between atoms: _315  and  _316
REMARK   98  A    between atoms: _315  and  _317
REMARK   99  A    between atoms: _325  and  _326
REMARK  100  A    between atoms: _326  and  _327
REMARK  101  A    between atoms: _326  and  _329
REMARK  102  A    between atoms: _329  and  _330
REMARK  103  A    between atoms: _345  and  _346
REMARK  104  A    between atoms: _346  and  _347
REMARK  105  A    between atoms: _346  and  _349
REMARK  106  A    between atoms: _349  and  _350
REMARK  107  A    between atoms: _355  and  _356
REMARK  108  A    between atoms: _366  and  _367
REMARK  109  A    between atoms: _367  and  _368
REMARK  110  A    between atoms: _367  and  _370
REMARK  111  A    between atoms: _370  and  _371
REMARK  112  A    between atoms: _377  and  _378
REMARK  113  A    between atoms: _378  and  _379
REMARK  114  A    between atoms: _378  and  _381
REMARK  115  A    between atoms: _381  and  _382
REMARK  116  A    between atoms: _391  and  _392
REMARK  117  A    between atoms: _392  and  _393
REMARK  118  A    between atoms: _392  and  _395
REMARK  119  A    between atoms: _395  and  _396
REMARK  120  A    between atoms: _396  and  _397
REMARK  121  A    between atoms: _397  and  _398
REMARK  122  A    between atoms: _398  and  _399
REMARK  123  A    between atoms: _413  and  _414
REMARK  124  A    between atoms: _414  and  _415
REMARK  125  A    between atoms: _414  and  _417
REMARK  126  A    between atoms: _417  and  _418
REMARK  127  A    between atoms: _418  and  _419
REMARK  128  A    between atoms: _428  and  _429
REMARK  129  A    between atoms: _429  and  _430
REMARK  130  A    between atoms: _429  and  _432
REMARK  131  A    between atoms: _432  and  _433
REMARK  132  A    between atoms: _432  and  _434
REMARK  133  A    between atoms: _433  and  _435
REMARK  134  A    between atoms: _447  and  _448
REMARK  135  A    between atoms: _448  and  _449
REMARK  136  A    between atoms: _448  and  _451
REMARK  137  A    between atoms: _451  and  _452
REMARK  138  A    between atoms: _467  and  _468
REMARK  139  A    between atoms: _468  and  _469
REMARK  140  A    between atoms: _468  and  _471
REMARK  141  A    between atoms: _471  and  _472
REMARK  142  A    between atoms: _472  and  _473
REMARK  143  A    between atoms: _472  and  _474
REMARK  144  A    between atoms: _486  and  _487
REMARK  145  A    between atoms: _487  and  _488
REMARK  146  A    between atoms: _487  and  _490
REMARK  147  A    between atoms: _490  and  _491
REMARK  148  A    between atoms: _491  and  _492
REMARK  149  A    between atoms: _492  and  _493
REMARK  150  A    between atoms: _510  and  _511
REMARK  151  A    between atoms: _511  and  _512
REMARK  152  A    between atoms: _511  and  _514
REMARK  153  A    between atoms: _514  and  _515
REMARK  154  A    between atoms: _515  and  _516
REMARK  155  A    between atoms: _525  and  _526
REMARK  156  A    between atoms: _526  and  _527
REMARK  157  A    between atoms: _526  and  _529
REMARK  158  A    between atoms: _529  and  _530
REMARK  159  A    between atoms: _530  and  _531
REMARK  160  A    between atoms: _530  and  _532
REMARK  161  A    between atoms: _544  and  _545
REMARK  162  A    between atoms: _545  and  _546
REMARK  163  A    between atoms: _545  and  _548
REMARK  164  A    between atoms: _548  and  _549
REMARK  165  A    between atoms: _548  and  _550
REMARK  166  A    between atoms: _549  and  _551
REMARK  167  A    between atoms: _563  and  _564
REMARK  168  A    between atoms: _564  and  _565
REMARK  169  A    between atoms: _564  and  _567
REMARK  170  A    between atoms: _567  and  _568
REMARK  171  A    between atoms: _574  and  _575
REMARK  172  A    between atoms: _575  and  _576
REMARK  173  A    between atoms: _575  and  _578
REMARK  174  A    between atoms: _578  and  _579
REMARK  175  A    between atoms: _588  and  _589
REMARK  176  A    between atoms: _589  and  _590
REMARK  177  A    between atoms: _589  and  _592
REMARK  178  A    between atoms: _592  and  _593
REMARK  179  A    between atoms: _599  and  _600
REMARK  180  A    between atoms: _600  and  _601
REMARK  181  A    between atoms: _600  and  _603
REMARK  182  A    between atoms: _603  and  _604
REMARK  183  A    between atoms: _610  and  _611
REMARK  184  A    between atoms: _611  and  _612
REMARK  185  A    between atoms: _611  and  _614
REMARK  186  A    between atoms: _614  and  _615
REMARK  187  A    between atoms: _622  and  _623
REMARK  188  A    between atoms: _623  and  _624
REMARK  189  A    between atoms: _623  and  _626
REMARK  190  A    between atoms: _632  and  _633
REMARK  191  A    between atoms: _633  and  _634
REMARK  192  A    between atoms: _633  and  _636
REMARK  193  A    between atoms: _636  and  _637
REMARK  194  A    between atoms: _637  and  _638
REMARK  195  A    between atoms: _637  and  _639
REMARK  196  A    between atoms: _651  and  _652
REMARK  197  A    between atoms: _652  and  _653
REMARK  198  A    between atoms: _652  and  _655
REMARK  199  A    between atoms: _655  and  _656
REMARK  200  A    between atoms: _663  and  _664
REMARK  201  A    between atoms: _664  and  _665
REMARK  202  A    between atoms: _664  and  _667
REMARK  203  A    between atoms: _667  and  _668
REMARK  204  A    between atoms: _668  and  _669
REMARK  205  A    between atoms: _669  and  _670
REMARK  206  A    between atoms: _670  and  _671
REMARK  207  A    between atoms: _685  and  _686
REMARK  208  A    between atoms: _686  and  _687
REMARK  209  A    between atoms: _686  and  _689
REMARK  210  A    between atoms: _689  and  _690
REMARK  211  A    between atoms: _689  and  _691
REMARK  212  A    between atoms: _690  and  _692
REMARK  213  A    between atoms: _704  and  _705
REMARK  214  A    between atoms: _705  and  _706
REMARK  215  A    between atoms: _705  and  _708
REMARK  216  A    between atoms: _708  and  _709
REMARK  217  A    between atoms: _709  and  _710
REMARK  218  A    between atoms: _710  and  _711
REMARK  219  A    between atoms: _728  and  _729
REMARK  220  A    between atoms: _729  and  _730
REMARK  221  A    between atoms: _729  and  _732
REMARK  222  A    between atoms: _732  and  _733
REMARK  223  A    between atoms: _738  and  _739
REMARK  224  A    between atoms: _749  and  _750
REMARK  225  A    between atoms: _750  and  _751
REMARK  226  A    between atoms: _750  and  _753
REMARK  227  A    between atoms: _753  and  _754
REMARK  228  A    between atoms: _754  and  _755
REMARK  229  A    between atoms: _764  and  _765
REMARK  230  A    between atoms: _765  and  _766
REMARK  231  A    between atoms: _765  and  _768
REMARK  232  A    between atoms: _772  and  _773
REMARK  233  A    between atoms: _773  and  _774
REMARK  234  A    between atoms: _773  and  _776
REMARK  235  A    between atoms: _776  and  _777
REMARK  236  A    between atoms: _777  and  _778
REMARK  237  A    between atoms: _777  and  _779
REMARK  238  A    between atoms: _791  and  _792
REMARK  239  A    between atoms: _792  and  _793
REMARK  240  A    between atoms: _792  and  _795
REMARK  241  A    between atoms: _795  and  _796
REMARK  242  A    between atoms: _795  and  _797
REMARK  243  A    between atoms: _805  and  _806
REMARK  244  A    between atoms: _806  and  _807
REMARK  245  A    between atoms: _806  and  _809
REMARK  246  A    between atoms: _809  and  _810
REMARK  247  A    between atoms: _818  and  _819
REMARK  248  A    between atoms: _831  and  _832
REMARK  249  A    between atoms: _832  and  _833
REMARK  250  A    between atoms: _832  and  _835
REMARK  251  A    between atoms: _835  and  _836
REMARK  252  A    between atoms: _842  and  _843
REMARK  253  A    between atoms: _843  and  _844
REMARK  254  A    between atoms: _843  and  _846
REMARK  255  A    between atoms: _846  and  _847
REMARK  256  A    between atoms: _847  and  _848
REMARK  257  A    between atoms: _848  and  _849
REMARK  258  A    between atoms: _849  and  _850
REMARK  259  A    between atoms: _864  and  _865
REMARK  260  A    between atoms: _865  and  _866
REMARK  261  A    between atoms: _865  and  _868
REMARK  262  A    between atoms: _868  and  _869
REMARK  263  A    between atoms: _869  and  _870
REMARK  264  A    between atoms: _869  and  _871
REMARK  265  A    between atoms: _883  and  _884
REMARK  266  A    between atoms: _884  and  _885
REMARK  267  A    between atoms: _884  and  _887
REMARK  268  A    between atoms: _887  and  _888
REMARK  269  A    between atoms: _895  and  _896
REMARK  270  A    between atoms: _896  and  _897
REMARK  271  A    between atoms: _896  and  _899
REMARK  272  A    between atoms: _899  and  _900
REMARK  273  A    between atoms: _906  and  _907
REMARK  274  A    between atoms: _907  and  _908
REMARK  275  A    between atoms: _913  and  _914
REMARK  276  A    between atoms: _914  and  _915
REMARK  277  A    between atoms: _914  and  _917
REMARK  278  A    between atoms: _917  and  _918
REMARK  279  A    between atoms: _918  and  _919
REMARK  280  A    between atoms: _919  and  _920
REMARK  281  A    between atoms: _920  and  _921
REMARK  282  A    between atoms: _935  and  _936
REMARK  283  A    between atoms: _936  and  _937
REMARK  284  A    between atoms: _936  and  _939
REMARK  285  A    between atoms: _939  and  _940
REMARK  286  A    between atoms: _940  and  _941
REMARK  287  A    between atoms: _950  and  _951
REMARK  288  A    between atoms: _951  and  _952
REMARK  289  A    between atoms: _951  and  _954
REMARK  290  A    between atoms: _954  and  _955
REMARK  291  A    between atoms: _955  and  _956
REMARK  292  A    between atoms: _955  and  _957
REMARK  293  A    between atoms: _969  and  _970
REMARK  294  A    between atoms: _970  and  _971
REMARK  295  A    between atoms: _970  and  _973
REMARK  296  A    between atoms: _973  and  _974
REMARK  297  A    between atoms: _986  and  _987
REMARK  298  A    between atoms: _987  and  _988
REMARK  299  A    between atoms: _987  and  _990
REMARK  300  A    between atoms: _990  and  _991
REMARK  301  A    between atoms: _990  and  _992
REMARK  302  A    between atoms: _991  and  _993
REMARK  303  A    between atoms: _1005  and  _1006
REMARK  304  A    between atoms: _1006  and  _1007
REMARK  305  A    between atoms: _1006  and  _1009
REMARK  306  A    between atoms: _1009  and  _1010
REMARK  307  A    between atoms: _1019  and  _1020
REMARK  308  A    between atoms: _1020  and  _1021
REMARK  309  A    between atoms: _1020  and  _1023
REMARK  310  A    between atoms: _1023  and  _1024
REMARK  311  A    between atoms: _1024  and  _1025
REMARK  312  A    between atoms: _1024  and  _1026
REMARK  313  A    between atoms: _1038  and  _1039
REMARK  314  A    between atoms: _1039  and  _1040
REMARK  315  A    between atoms: _1039  and  _1042
REMARK  316  A    between atoms: _1042  and  _1043
REMARK  317  A    between atoms: _1042  and  _1044
REMARK  318  A    between atoms: _1043  and  _1045
REMARK  319  A    between atoms: _1058  and  _1059
REMARK  320  A    between atoms: _1071  and  _1072
REMARK  321  A    between atoms: _1072  and  _1073
REMARK  322  A    between atoms: _1072  and  _1075
REMARK  323  A    between atoms: _1075  and  _1076
REMARK  324  A    between atoms: _1085  and  _1086
REMARK  325  A    between atoms: _1086  and  _1087
REMARK  326  A    between atoms: _1086  and  _1089
REMARK  327  A    between atoms: _1089  and  _1090
REMARK  328  A    between atoms: _1090  and  _1091
REMARK  329  A    between atoms: _1091  and  _1092
REMARK  330  A    between atoms: _1092  and  _1093
REMARK  331  A    between atoms: _1107  and  _1108
REMARK  332  A    between atoms: _1108  and  _1109
REMARK  333  A    between atoms: _1108  and  _1111
REMARK  334  A    between atoms: _1111  and  _1112
REMARK  335  A    between atoms: _1112  and  _1113
REMARK  336  A    between atoms: _1124  and  _1125
REMARK  337  A    between atoms: _1125  and  _1126
REMARK  338  A    between atoms: _1125  and  _1128
REMARK  339  A    between atoms: _1128  and  _1129
REMARK  340  A    between atoms: _1136  and  _1137
REMARK  341  A    between atoms: _1137  and  _1138
REMARK  342  A    between atoms: _1137  and  _1140
REMARK  343  A    between atoms: _1140  and  _1141
REMARK  344  A    between atoms: _1141  and  _1142
REMARK  345  A    between atoms: _1142  and  _1143
REMARK  346  A    between atoms: _1160  and  _1161
REMARK  347  A    between atoms: _1161  and  _1162
REMARK  348  A    between atoms: _1161  and  _1164
REMARK  349  A    between atoms: _1164  and  _1165
REMARK  350  A    between atoms: _1164  and  _1166
REMARK  351  A    between atoms: _1174  and  _1175
REMARK  352  A    between atoms: _1175  and  _1176
REMARK  353  A    between atoms: _1175  and  _1178
REMARK  354  A    between atoms: _1178  and  _1179
REMARK  355  A    between atoms: _1179  and  _1180
REMARK  356  A    between atoms: _1179  and  _1181
REMARK  357  A    between atoms: _1193  and  _1194
REMARK  358  A    between atoms: _1194  and  _1195
REMARK  359  A    between atoms: _1194  and  _1197
REMARK  360  A    between atoms: _1197  and  _1198
REMARK  361  A    between atoms: _1197  and  _1199
REMARK  362  A    between atoms: _1207  and  _1208
REMARK  363  A    between atoms: _1208  and  _1209
REMARK  364  A    between atoms: _1208  and  _1211
REMARK  365  A    between atoms: _1211  and  _1212
REMARK  366  A    between atoms: _1211  and  _1213
REMARK  367  A    between atoms: _1212  and  _1214
REMARK  368  A    between atoms: _1226  and  _1227
REMARK  369  A    between atoms: _1227  and  _1228
REMARK  370  A    between atoms: _1227  and  _1230
REMARK  371  A    between atoms: _1230  and  _1231
REMARK  372  A    between atoms: _1230  and  _1232
REMARK  373  A    between atoms: _1242  and  _1243
REMARK  374  A    between atoms: _1243  and  _1244
REMARK  375  A    between atoms: _1243  and  _1246
REMARK  376  A    between atoms: _1246  and  _1247
REMARK  377  A    between atoms: _1254  and  _1255
REMARK  378  A    between atoms: _1255  and  _1256
REMARK  379  A    between atoms: _1255  and  _1258
REMARK  380  A    between atoms: _1258  and  _1259
REMARK  381  A    between atoms: _1258  and  _1260
REMARK  382  A    between atoms: _1268  and  _1269
REMARK  383  A    between atoms: _1269  and  _1270
REMARK  384  A    between atoms: _1275  and  _1276
REMARK  385  A    between atoms: _1276  and  _1277
REMARK  386  A    between atoms: _1276  and  _1279
REMARK  387  A    between atoms: _1279  and  _1280
REMARK  388  A    between atoms: _1279  and  _1281
REMARK  389  A    between atoms: _1280  and  _1282
REMARK  390  A    between atoms: _1294  and  _1295
REMARK  391  A    between atoms: _1295  and  _1296
REMARK  392  A    between atoms: _1301  and  _1302
REMARK  393  A    between atoms: _1302  and  _1303
REMARK  394  A    between atoms: _1302  and  _1305
REMARK  395  A    between atoms: _1305  and  _1306
REMARK  396  A    between atoms: _1306  and  _1307
REMARK  397  A    between atoms: _1307  and  _1308
REMARK  398  A    between atoms: _1318  and  _1319
REMARK  399  A    between atoms: _1319  and  _1320
REMARK  400  A    between atoms: _1319  and  _1322
REMARK  401  A    between atoms: _1322  and  _1323
REMARK  402  A    between atoms: _1322  and  _1324
REMARK  403  A    between atoms: _1332  and  _1333
REMARK  404  A    between atoms: _1333  and  _1334
REMARK  405  A    between atoms: _1333  and  _1336
REMARK  406  A    between atoms: _1336  and  _1337
REMARK  407  A    between atoms: _1337  and  _1338
REMARK  408  A    between atoms: _1338  and  _1339
REMARK  409  A    between atoms: _1339  and  _1340
REMARK  410  A    between atoms: _1354  and  _1355
REMARK  411  A    between atoms: _1355  and  _1356
REMARK  412  A    between atoms: _1355  and  _1358
REMARK  413  A    between atoms: _1364  and  _1365
REMARK  414  A    between atoms: _1365  and  _1366
REMARK  415  A    between atoms: _1365  and  _1368
REMARK  416  A    between atoms: _1368  and  _1369
REMARK  417  A    between atoms: _1376  and  _1377
REMARK  418  A    between atoms: _1377  and  _1378
REMARK  419  A    between atoms: _1377  and  _1380
REMARK  420  A    between atoms: _1380  and  _1381
REMARK  421  A    between atoms: _1381  and  _1382
REMARK  422  A    between atoms: _1381  and  _1383
REMARK  423  A    between atoms: _1395  and  _1396
REMARK  424  A    between atoms: _1396  and  _1399
REMARK  425  A    between atoms: _1399  and  _1400
REMARK  426  A    between atoms: _1399  and  _1401
REMARK  427  A    between atoms: _1400  and  _1402
REMARK  428  A    between atoms: _1422  and  _1425
REMARK  429  A    between atoms: _1424  and  _1428
REMARK  430  A    between atoms: _1425  and  _1427
REMARK  431  A    between atoms: _1443  and  _1444
REMARK  432  A    between atoms: _1443  and  _1446
REMARK  433  A    between atoms: _1446  and  _1447
REMARK  434  A    between atoms: _1457  and  _1458
REMARK  435  A    between atoms: _1458  and  _1459
REMARK  436  A    between atoms: _1458  and  _1461
REMARK  437  A    between atoms: _1461  and  _1462
REMARK  438  A    between atoms: _1462  and  _1463
REMARK  439  A    between atoms: _1462  and  _1464
REMARK  440  A    between atoms: _1476  and  _1477
REMARK  441  A    between atoms: _1477  and  _1478
REMARK  442  A    between atoms: _1483  and  _1484
REMARK  443  A    between atoms: _1484  and  _1485
REMARK  444  A    between atoms: _1484  and  _1487
REMARK  445  A    between atoms: _1487  and  _1488
REMARK  446  A    between atoms: _1487  and  _1489
REMARK  447  A    between atoms: _1497  and  _1498
REMARK  448  A    between atoms: _1498  and  _1499
REMARK  449  A    between atoms: _1498  and  _1501
REMARK  450  A    between atoms: _1501  and  _1502
REMARK  451  A    between atoms: _1501  and  _1503
REMARK  452  A    between atoms: _1502  and  _1504
REMARK  453  A    between atoms: _1516  and  _1517
REMARK  454  A    between atoms: _1517  and  _1518
REMARK  455  A    between atoms: _1517  and  _1520
REMARK  456  A    between atoms: _1526  and  _1527
REMARK  457  A    between atoms: _1527  and  _1528
REMARK  458  A    between atoms: _1527  and  _1530
REMARK  459  A    between atoms: _1530  and  _1531
REMARK  460  A    between atoms: _1531  and  _1532
REMARK  461  A    between atoms: _1532  and  _1533
REMARK  462  A    between atoms: _1533  and  _1534
REMARK  463  A    between atoms: _1548  and  _1549
REMARK  464  A    between atoms: _1549  and  _1550
REMARK  465  A    between atoms: _1549  and  _1552
REMARK  466  A    between atoms: _1552  and  _1553
REMARK  467  A    between atoms: _1559  and  _1560
REMARK  468  A    between atoms: _1560  and  _1561
REMARK  469  A    between atoms: _1566  and  _1567
REMARK  470  A    between atoms: _1567  and  _1568
REMARK  471  A    between atoms: _1567  and  _1570
REMARK  472  A    between atoms: _1570  and  _1571
REMARK  473  A    between atoms: _1570  and  _1572
REMARK  474  A    between atoms: _1580  and  _1581
REMARK  475  A    between atoms: _1581  and  _1582
REMARK  476  A    between atoms: _1581  and  _1584
REMARK  477  A    between atoms: _1584  and  _1585
REMARK  478  A    between atoms: _1585  and  _1586
REMARK  479  A    between atoms: _1586  and  _1587
REMARK  480  A    between atoms: _1587  and  _1588
REMARK  481  A    between atoms: _1602  and  _1603
REMARK  482  A    between atoms: _1603  and  _1604
REMARK  483  A    between atoms: _1603  and  _1606
REMARK  484  A    between atoms: _1612  and  _1613
REMARK  485  A    between atoms: _1613  and  _1614
REMARK  486  A    between atoms: _1613  and  _1616
REMARK  487  A    between atoms: _1616  and  _1617
REMARK  488  A    between atoms: _1632  and  _1633
REMARK  489  A    between atoms: _1633  and  _1634
REMARK  490  A    between atoms: _1633  and  _1636
REMARK  491  A    between atoms: _1636  and  _1637
REMARK  492  A    between atoms: _1637  and  _1638
REMARK  493  A    between atoms: _1638  and  _1639
REMARK  494  A    between atoms: _1649  and  _1650
REMARK  495  A    between atoms: _1650  and  _1651
REMARK  496  A    between atoms: _1650  and  _1653
REMARK  497  A    between atoms: _1653  and  _1654
REMARK  498  A    between atoms: _1654  and  _1655
REMARK  499  A    between atoms: _1664  and  _1665
REMARK  500  A    between atoms: _1665  and  _1666
REMARK  501  A    between atoms: _1665  and  _1668
REMARK  502  A    between atoms: _1674  and  _1675
REMARK  503  A    between atoms: _1675  and  _1676
REMARK  504  A    between atoms: _1675  and  _1678
REMARK  505  A    between atoms: _1678  and  _1679
REMARK  506  A    between atoms: _1679  and  _1680
REMARK  507  A    between atoms: _1679  and  _1681
REMARK  508  A    between atoms: _1693  and  _1694
REMARK  509  A    between atoms: _1694  and  _1695
REMARK  510  A    between atoms: _1694  and  _1697
REMARK  511  A    between atoms: _1697  and  _1698
REMARK  512  A    between atoms: _1698  and  _1699
REMARK  513  A    between atoms: _1710  and  _1711
REMARK  514  A    between atoms: _1711  and  _1712
REMARK  515  A    between atoms: _1711  and  _1714
REMARK  516  A    between atoms: _1720  and  _1721
REMARK  517  A    between atoms: _1721  and  _1722
REMARK  518  A    between atoms: _1727  and  _1728
REMARK  519  A    between atoms: _1728  and  _1729
REMARK  520  A    between atoms: _1728  and  _1731
REMARK  521  A    between atoms: _1737  and  _1738
REMARK  522  A    between atoms: _1738  and  _1739
REMARK  523  A    between atoms: _1738  and  _1741
REMARK  524  A    between atoms: _1741  and  _1742
REMARK  525  A    between atoms: _1749  and  _1750
REMARK  526  A    between atoms: _1750  and  _1751
REMARK  527  A    between atoms: _1750  and  _1753
REMARK  528  A    between atoms: _1753  and  _1754
REMARK  529  A    between atoms: _1753  and  _1755
REMARK  530  A    between atoms: _1754  and  _1756
REMARK  531  A    between atoms: _1768  and  _1769
REMARK  532  A    between atoms: _1769  and  _1772
REMARK  533  A    between atoms: _1772  and  _1773
REMARK  534  A    between atoms: _1791  and  _1793
REMARK  535  A    between atoms: _1792  and  _1794
REMARK  536  A    between atoms: _1814  and  _1815
REMARK  537  A    between atoms: _1814  and  _1817
REMARK  538  A    between atoms: _1817  and  _1818
REMARK  539  A    between atoms: _1817  and  _1819
REMARK  540  A    between atoms: _1818  and  _1820
REMARK  541  A    between atoms: _1833  and  _1834
REMARK  542  A    between atoms: _1834  and  _1835
REMARK  543  A    between atoms: _1840  and  _1841
REMARK  544  A    between atoms: _1841  and  _1842
REMARK  545  A    between atoms: _1841  and  _1844
REMARK  546  A    between atoms: _1844  and  _1845
REMARK  547  A    between atoms: _1845  and  _1846
REMARK  548  A    between atoms: _1857  and  _1858
REMARK  549  A    between atoms: _1858  and  _1859
REMARK  550  A    between atoms: _1858  and  _1861
REMARK  551  A    between atoms: _1861  and  _1862
REMARK  552  A    between atoms: _1877  and  _1878
REMARK  553  A    between atoms: _1878  and  _1879
REMARK  554  A    between atoms: _1884  and  _1885
REMARK  555  A    between atoms: _1885  and  _1886
REMARK  556  A    between atoms: _1885  and  _1888
REMARK  557  A    between atoms: _1888  and  _1889
REMARK  558  A    between atoms: _1888  and  _1890
REMARK  559  A    between atoms: _1900  and  _1901
REMARK  560  A    between atoms: _1901  and  _1902
REMARK  561  A    between atoms: _1907  and  _1908
REMARK  562  A    between atoms: _1908  and  _1909
REMARK  563  A    between atoms: _1908  and  _1911
REMARK  564  A    between atoms: _1911  and  _1912
REMARK  565  A    between atoms: _1927  and  _1928
REMARK  566  A    between atoms: _1928  and  _1929
REMARK  567  A    between atoms: _1928  and  _1931
REMARK  568  A    between atoms: _1931  and  _1932
REMARK  569  A    between atoms: _1937  and  _1938
REMARK  570  A    between atoms: _1948  and  _1949
REMARK  571  A    between atoms: _1949  and  _1950
REMARK  572  A    between atoms: _1949  and  _1952
REMARK  573  A    between atoms: _1952  and  _1953
REMARK  574  A    between atoms: _1959  and  _1960
REMARK  575  A    between atoms: _1960  and  _1961
REMARK  576  A    between atoms: _1960  and  _1963
REMARK  577  A    between atoms: _1969  and  _1970
REMARK  578  A    between atoms: _1970  and  _1971
REMARK  579  A    between atoms: _1970  and  _1973
REMARK  580  A    between atoms: _1973  and  _1974
REMARK  581  A    between atoms: _1979  and  _1980
REMARK  582  A    between atoms: _1990  and  _1991
REMARK  583  A    between atoms: _1991  and  _1992
REMARK  584  A    between atoms: _1991  and  _1994
REMARK  585  A    between atoms: _1994  and  _1995
REMARK  586  A    between atoms: _1995  and  _1996
REMARK  587  A    between atoms: _1995  and  _1997
REMARK  588  A    between atoms: _2009  and  _2010
REMARK  589  A    between atoms: _2010  and  _2011
REMARK  590  A    between atoms: _2010  and  _2013
REMARK  591  A    between atoms: _2013  and  _2014
REMARK  592  A    between atoms: _2013  and  _2015
REMARK  593  A    between atoms: _2025  and  _2026
REMARK  594  A    between atoms: _2026  and  _2027
REMARK  595  A    between atoms: _2026  and  _2029
REMARK  596  A    between atoms: _2035  and  _2036
REMARK  597  A    between atoms: _2036  and  _2037
REMARK  598  A    between atoms: _2036  and  _2039
REMARK  599  A    between atoms: _2039  and  _2040
REMARK  600  A    between atoms: _2040  and  _2041
REMARK  601  A    between atoms: _2050  and  _2051
REMARK  602  A    between atoms: _2051  and  _2052
REMARK  603  A    between atoms: _2051  and  _2054
REMARK  604  A    between atoms: _2054  and  _2055
REMARK  605  A    between atoms: _2055  and  _2056
REMARK  606  A    between atoms: _2056  and  _2057
REMARK  607  A    between atoms: _2057  and  _2058
REMARK  608  A    between atoms: _2072  and  _2073
REMARK  609  A    between atoms: _2073  and  _2074
REMARK  610  A    between atoms: _2073  and  _2076
REMARK  611  A    between atoms: _2076  and  _2077
REMARK  612  A    between atoms: _2076  and  _2078
REMARK  613  A    between atoms: _2088  and  _2089
REMARK  614  A    between atoms: _2089  and  _2090
REMARK  615  A    between atoms: _2089  and  _2092
REMARK  616  A    between atoms: _2092  and  _2093
REMARK  617  A    between atoms: _2092  and  _2094
REMARK  618  A    between atoms: _2102  and  _2103
REMARK  619  A    between atoms: _2103  and  _2104
REMARK  620  A    between atoms: _2103  and  _2106
REMARK  621  A    between atoms: _2106  and  _2107
REMARK  622  A    between atoms: _2106  and  _2108
REMARK  623  A    between atoms: _2118  and  _2119
REMARK  624  A    between atoms: _2119  and  _2120
REMARK  625  A    between atoms: _2119  and  _2122
REMARK  626  A    between atoms: _2122  and  _2123
REMARK  627  A    between atoms: _2122  and  _2124
REMARK  628  A    between atoms: _2123  and  _2125
REMARK  629  A    between atoms: _2137  and  _2138
REMARK  630  A    between atoms: _2138  and  _2139
REMARK  631  A    between atoms: _2138  and  _2141
REMARK  632  A    between atoms: _2141  and  _2142
REMARK  633  A    between atoms: _2141  and  _2143
REMARK  634  A    between atoms: _2151  and  _2152
REMARK  635  A    between atoms: _2152  and  _2153
REMARK  636  A    between atoms: _2152  and  _2155
REMARK  637  A    between atoms: _2155  and  _2156
REMARK  638  A    between atoms: _2156  and  _2157
REMARK  639  A    between atoms: _2157  and  _2158
REMARK  640  A    between atoms: _2158  and  _2159
REMARK  641  A    between atoms: _2173  and  _2174
REMARK  642  A    between atoms: _2174  and  _2175
REMARK  643  A    between atoms: _2174  and  _2177
REMARK  644  A    between atoms: _2177  and  _2178
REMARK  645  A    between atoms: _2190  and  _2191
REMARK  646  A    between atoms: _2191  and  _2192
REMARK  647  A    between atoms: _2191  and  _2194
REMARK  648  A    between atoms: _2194  and  _2195
REMARK  649  A    between atoms: _2204  and  _2205
REMARK  650  A    between atoms: _2205  and  _2206
REMARK  651  A    between atoms: _2205  and  _2208
REMARK  652  A    between atoms: _2208  and  _2209
REMARK  653  A    between atoms: _2216  and  _2217
REMARK  654  A    between atoms: _2217  and  _2218
REMARK  655  A    between atoms: _2217  and  _2220
REMARK  656  A    between atoms: _2220  and  _2221
REMARK  657  A    between atoms: _2228  and  _2229
REMARK  658  A    between atoms: _2229  and  _2230
REMARK  659  A    between atoms: _2229  and  _2232
REMARK  660  A    between atoms: _2232  and  _2233
REMARK  661  A    between atoms: _2233  and  _2234
REMARK  662  A    between atoms: _2243  and  _2244
REMARK  663  A    between atoms: _2244  and  _2245
REMARK  664  A    between atoms: _2244  and  _2247
REMARK  665  A    between atoms: _2247  and  _2248
REMARK  666  A    between atoms: _2248  and  _2249
REMARK  667  A    between atoms: _2260  and  _2261
REMARK  668  A    between atoms: _2261  and  _2262
REMARK  669  A    between atoms: _2261  and  _2264
REMARK  670  A    between atoms: _2264  and  _2265
REMARK  671  A    between atoms: _2270  and  _2271
REMARK  672  A    between atoms: _2281  and  _2282
REMARK  673  A    between atoms: _2282  and  _2283
REMARK  674  A    between atoms: _2282  and  _2285
REMARK  675  A    between atoms: _2291  and  _2292
REMARK  676  A    between atoms: _2292  and  _2293
REMARK  677  A    between atoms: _2292  and  _2295
REMARK  678  A    between atoms: _2295  and  _2296
REMARK  679  A    between atoms: _2315  and  _2316
REMARK  680  A    between atoms: _2316  and  _2317
REMARK  681  A    between atoms: _2316  and  _2319
REMARK  682  A    between atoms: _2319  and  _2320
REMARK  683  A    between atoms: _2320  and  _2321
REMARK  684  A    between atoms: _2330  and  _2331
REMARK  685  A    between atoms: _2331  and  _2332
REMARK  686  A    between atoms: _2331  and  _2334
REMARK  687  A    between atoms: _2334  and  _2335
REMARK  688  A    between atoms: _2341  and  _2342
REMARK  689  A    between atoms: _2342  and  _2343
REMARK  690  A    between atoms: _2342  and  _2345
REMARK  691  A    between atoms: _2345  and  _2346
REMARK  692  A    between atoms: _2352  and  _2353
REMARK  693  A    between atoms: _2353  and  _2354
REMARK  694  A    between atoms: _2353  and  _2356
REMARK  695  A    between atoms: _2362  and  _2363
REMARK  696  A    between atoms: _2363  and  _2364
REMARK  697  A    between atoms: _2369  and  _2370
REMARK  698  A    between atoms: _2370  and  _2371
REMARK  699  A    between atoms: _2376  and  _2377
REMARK  700  A    between atoms: _2377  and  _2378
REMARK  701  A    between atoms: _2377  and  _2380
REMARK  702  A    between atoms: _2380  and  _2381
REMARK  703  A    between atoms: _2387  and  _2388
REMARK  704  A    between atoms: _2388  and  _2389
REMARK  705  A    between atoms: _2388  and  _2391
REMARK  706  A    between atoms: _2391  and  _2392
REMARK  707  A    between atoms: _2407  and  _2408
REMARK  708  A    between atoms: _2408  and  _2409
REMARK  709  A    between atoms: _2408  and  _2411
REMARK  710  A    between atoms: _2411  and  _2412
REMARK  711  A    between atoms: _2411  and  _2413
REMARK  712  A    between atoms: _2421  and  _2422
REMARK  713  A    between atoms: _2422  and  _2423
REMARK  714  A    between atoms: _2422  and  _2425
REMARK  715  A    between atoms: _2425  and  _2426
REMARK  716  A    between atoms: _2425  and  _2427
REMARK  717  A    between atoms: _2437  and  _2438
REMARK  718  A    between atoms: _2438  and  _2439
REMARK  719  A    between atoms: _2438  and  _2441
REMARK  720  A    between atoms: _2441  and  _2442
REMARK  721  A    between atoms: _2442  and  _2443
REMARK  722  A    between atoms: _2443  and  _2444
REMARK  723  A    between atoms: _2461  and  _2462
REMARK  724  A    between atoms: _2462  and  _2463
REMARK  725  A    between atoms: _2462  and  _2465
REMARK  726  A    between atoms: _2465  and  _2466
REMARK  727  A    between atoms: _2465  and  _2467
REMARK  728  A    between atoms: _2475  and  _2476
REMARK  729  A    between atoms: _2476  and  _2477
REMARK  730  A    between atoms: _2476  and  _2479
REMARK  731  A    between atoms: _2479  and  _2480
REMARK  732  A    between atoms: _2487  and  _2488
REMARK  733  A    between atoms: _2488  and  _2489
REMARK  734  A    between atoms: _2488  and  _2491
REMARK  735  A    between atoms: _2491  and  _2492
REMARK  736  A    between atoms: _2491  and  _2493
REMARK  737  A    between atoms: _2501  and  _2502
REMARK  738  A    between atoms: _2502  and  _2503
REMARK  739  A    between atoms: _2508  and  _2509
REMARK  740  A    between atoms: _2509  and  _2510
REMARK  741  A    between atoms: _2509  and  _2512
REMARK  742  A    between atoms: _2512  and  _2513
REMARK  743  A    between atoms: _2513  and  _2514
REMARK  744  A    between atoms: _2524  and  _2525
REMARK  745  A    between atoms: _2537  and  _2538
REMARK  746  A    between atoms: _2538  and  _2539
REMARK  747  A    between atoms: _2538  and  _2541
REMARK  748  A    between atoms: _2541  and  _2542
REMARK  749  A    between atoms: _2542  and  _2543
REMARK  750  A    between atoms: _2543  and  _2544
REMARK  751  A    between atoms: _2554  and  _2555
REMARK  752  A    between atoms: _2555  and  _2556
REMARK  753  A    between atoms: _2561  and  _2562
REMARK  754  A    between atoms: _2562  and  _2563
REMARK  755  A    between atoms: _2562  and  _2565
REMARK  756  A    between atoms: _2565  and  _2566
REMARK  757  A    between atoms: _2566  and  _2567
REMARK  758  A    between atoms: _2567  and  _2568
REMARK  759  A    between atoms: _2585  and  _2586
REMARK  760  A    between atoms: _2586  and  _2587
REMARK  761  A    between atoms: _2592  and  _2593
REMARK  762  A    between atoms: _2593  and  _2594
REMARK  763  A    between atoms: _2593  and  _2596
REMARK  764  A    between atoms: _2596  and  _2597
REMARK  765  A    between atoms: _2596  and  _2598
REMARK  766  A    between atoms: _2606  and  _2607
REMARK  767  A    between atoms: _2607  and  _2608
REMARK  768  A    between atoms: _2607  and  _2610
REMARK  769  A    between atoms: _2610  and  _2611
REMARK  770  A    between atoms: _2611  and  _2612
REMARK  771  A    between atoms: _2612  and  _2613
REMARK  772  A    between atoms: _2613  and  _2614
REMARK  773  A    between atoms: _2628  and  _2629
REMARK  774  A    between atoms: _2629  and  _2630
REMARK  775  A    between atoms: _2629  and  _2632
REMARK  776  A    between atoms: _2632  and  _2633
REMARK  777  A    between atoms: _2632  and  _2634
REMARK  778  A    between atoms: _2644  and  _2645
REMARK  779  A    between atoms: _2645  and  _2646
REMARK  780  A    between atoms: _2645  and  _2648
REMARK  781  A    between atoms: _2648  and  _2649
REMARK  782  A    between atoms: _2648  and  _2650
REMARK  783  A    between atoms: _2649  and  _2651
REMARK  784  A    between atoms: _2663  and  _2664
REMARK  785  A    between atoms: _2664  and  _2665
REMARK  786  A    between atoms: _2664  and  _2667
REMARK  787  A    between atoms: _2667  and  _2668
REMARK  788  A    between atoms: _2668  and  _2669
REMARK  789  A    between atoms: _2668  and  _2670
REMARK  790  A    between atoms: _2682  and  _2683
REMARK  791  A    between atoms: _2683  and  _2684
REMARK  792  A    between atoms: _2683  and  _2686
REMARK  793  A    between atoms: _2686  and  _2687
REMARK  794  A    between atoms: _2699  and  _2700
REMARK  795  A    between atoms: _2700  and  _2701
REMARK  796  A    between atoms: _2700  and  _2703
REMARK  797  A    between atoms: _2703  and  _2704
REMARK  798  A    between atoms: _2704  and  _2705
REMARK  799  A    between atoms: _2704  and  _2706
REMARK  800  A    between atoms: _2718  and  _2719
REMARK  801  A    between atoms: _2719  and  _2720
REMARK  802  A    between atoms: _2719  and  _2722
REMARK  803  A    between atoms: _2722  and  _2723
REMARK  804  A    between atoms: _2723  and  _2724
REMARK  805  A    between atoms: _2724  and  _2725
REMARK  806  A    between atoms: _2725  and  _2726
REMARK  807  A    between atoms: _2740  and  _2741
REMARK  808  A    between atoms: _2741  and  _2742
REMARK  809  A    between atoms: _2741  and  _2744
REMARK  810  A    between atoms: _2744  and  _2745
REMARK  811  A    between atoms: _2745  and  _2746
REMARK  812  A    between atoms: _2755  and  _2756
REMARK  813  A    between atoms: _2756  and  _2757
REMARK  814  A    between atoms: _2756  and  _2759
REMARK  815  A    between atoms: _2759  and  _2760
REMARK  816  A    between atoms: _2767  and  _2768
REMARK  817  A    between atoms: _2768  and  _2769
REMARK  818  A    between atoms: _2768  and  _2771
REMARK  819  A    between atoms: _2771  and  _2772
REMARK  820  A    between atoms: _2772  and  _2773
REMARK  821  A    between atoms: _2784  and  _2785
REMARK  822  A    between atoms: _2785  and  _2786
REMARK  823  A    between atoms: _2785  and  _2788
REMARK  824  A    between atoms: _2788  and  _2789
REMARK  825  A    between atoms: _2788  and  _2790
REMARK  826  A    between atoms: _2798  and  _2799
REMARK  827  A    between atoms: _2799  and  _2800
REMARK  828  A    between atoms: _2799  and  _2802
REMARK  829  A    between atoms: _2802  and  _2803
REMARK  830  A    between atoms: _2803  and  _2804
REMARK  831  A    between atoms: _2813  and  _2814
REMARK  832  A    between atoms: _2814  and  _2815
REMARK  833  A    between atoms: _2814  and  _2817
REMARK  834  A    between atoms: _2817  and  _2818
REMARK  835  A    between atoms: _2823  and  _2824
REMARK  836  A    between atoms: _2834  and  _2835
REMARK  837  A    between atoms: _2835  and  _2838
REMARK  838  A    between atoms: _2838  and  _2839
REMARK  839  A    between atoms: _2839  and  _2840
REMARK  840  A    between atoms: _2839  and  _2841
REMARK  841  A    between atoms: _2884  and  _2885
REMARK  842  A    between atoms: _2884  and  _2887
REMARK  843  A    between atoms: _2887  and  _2888
REMARK  844  A    between atoms: _2888  and  _2889
REMARK  845  A    between atoms: _2899  and  _2900
REMARK  846  A    between atoms: _2900  and  _2901
REMARK  847  A    between atoms: _2900  and  _2903
REMARK  848  A    between atoms: _2903  and  _2904
REMARK  849  A    between atoms: _2904  and  _2905
REMARK  850  A    between atoms: _2905  and  _2906
REMARK  851  A    between atoms: _2923  and  _2924
REMARK  852  A    between atoms: _2924  and  _2925
REMARK  853  A    between atoms: _2924  and  _2927
REMARK  854  A    between atoms: _2927  and  _2928
REMARK  855  A    between atoms: _2928  and  _2929
REMARK  856  A    between atoms: _2929  and  _2930
REMARK  857  A    between atoms: _2947  and  _2948
REMARK  858  A    between atoms: _2948  and  _2949
REMARK  859  A    between atoms: _2948  and  _2951
REMARK  860  A    between atoms: _2951  and  _2952
REMARK  861  A    between atoms: _2951  and  _2953
REMARK  862  A    between atoms: _2952  and  _2954
REMARK  863  A    between atoms: _2966  and  _2967
REMARK  864  A    between atoms: _2967  and  _2968
REMARK  865  A    between atoms: _2967  and  _2970
REMARK  866  A    between atoms: _2970  and  _2971
REMARK  867  A    between atoms: _2971  and  _2972
REMARK  868  A    between atoms: _2972  and  _2973
REMARK  869  A    between atoms: _2973  and  _2974
REMARK  870  A    between atoms: _2988  and  _2989
REMARK  871  A    between atoms: _2989  and  _2990
REMARK  872  A    between atoms: _2989  and  _2992
REMARK  873  A    between atoms: _2992  and  _2993
REMARK  874  A    between atoms: _2993  and  _2994
REMARK  875  A    between atoms: _3003  and  _3004
REMARK  876  A    between atoms: _3004  and  _3005
REMARK  877  A    between atoms: _3004  and  _3007
REMARK  878  A    between atoms: _3007  and  _3008
REMARK  879  A    between atoms: _3007  and  _3009
REMARK  880  A    between atoms: _3008  and  _3010
REMARK  881  A    between atoms: _3022  and  _3023
REMARK  882  A    between atoms: _3023  and  _3024
REMARK  883  A    between atoms: _3023  and  _3026
REMARK  884  A    between atoms: _3026  and  _3027
REMARK  885  A    between atoms: _3026  and  _3028
REMARK  886  A    between atoms: _3038  and  _3039
REMARK  887  A    between atoms: _3039  and  _3040
REMARK  888  A    between atoms: _3039  and  _3042
REMARK  889  A    between atoms: _3042  and  _3043
REMARK  890  A    between atoms: _3043  and  _3044
REMARK  891  A    between atoms: _3044  and  _3045
REMARK  892  A    between atoms: _3045  and  _3046
REMARK  893  A    between atoms: _3060  and  _3061
REMARK  894  A    between atoms: _3061  and  _3062
REMARK  895  A    between atoms: _3061  and  _3064
REMARK  896  A    between atoms: _3064  and  _3065
REMARK  897  A    between atoms: _3065  and  _3066
REMARK  898  A    between atoms: _3066  and  _3067
REMARK  899  A    between atoms: _3067  and  _3068
REMARK  900  A    between atoms: _3082  and  _3083
REMARK  901  A    between atoms: _3083  and  _3084
REMARK  902  A    between atoms: _3083  and  _3086
REMARK  903  A    between atoms: _3086  and  _3087
REMARK  904  A    between atoms: _3099  and  _3100
REMARK  905  A    between atoms: _3100  and  _3101
REMARK  906  A    between atoms: _3100  and  _3103
REMARK  907  A    between atoms: _3103  and  _3104
REMARK  908  A    between atoms: _3110  and  _3111
REMARK  909  A    between atoms: _3111  and  _3112
REMARK  910  A    between atoms: _3111  and  _3114
REMARK  911  A    between atoms: _3114  and  _3115
REMARK  912  A    between atoms: _3115  and  _3116
REMARK  913  A    between atoms: _3127  and  _3128
REMARK  914  A    between atoms: _3128  and  _3129
REMARK  915  A    between atoms: _3128  and  _3131
REMARK  916  A    between atoms: _3131  and  _3132
REMARK  917  A    between atoms: _3147  and  _3148
REMARK  918  A    between atoms: _3148  and  _3149
REMARK  919  A    between atoms: _3148  and  _3151
REMARK  920  A    between atoms: _3151  and  _3152
REMARK  921  A    between atoms: _3151  and  _3153
REMARK  922  A    between atoms: _3152  and  _3154
REMARK  923  A    between atoms: _3166  and  _3167
REMARK  924  A    between atoms: _3167  and  _3168
REMARK  925  A    between atoms: _3173  and  _3174
REMARK  926  A    between atoms: _3174  and  _3175
REMARK  927  A    between atoms: _3174  and  _3177
REMARK  928  A    between atoms: _3177  and  _3178
REMARK  929  A    between atoms: _3183  and  _3184
REMARK  930  A    between atoms: _3195  and  _3196
REMARK  931  A    between atoms: _3208  and  _3209
REMARK  932  A    between atoms: _3209  and  _3210
REMARK  933  A    between atoms: _3209  and  _3212
REMARK  934  A    between atoms: _3212  and  _3213
REMARK  935  A    between atoms: _3212  and  _3214
REMARK  936  A    between atoms: _3213  and  _3215
REMARK  937  A    between atoms: _3227  and  _3228
REMARK  938  A    between atoms: _3228  and  _3229
REMARK  939  A    between atoms: _3228  and  _3231
REMARK  940  A    between atoms: _3231  and  _3232
REMARK  941  A    between atoms: _3231  and  _3233
REMARK  942  A    between atoms: _3241  and  _3242
REMARK  943  A    between atoms: _3242  and  _3243
REMARK  944  A    between atoms: _3242  and  _3245
REMARK  945  A    between atoms: _3245  and  _3246
REMARK  946  A    between atoms: _3246  and  _3247
REMARK  947  A    between atoms: _3246  and  _3248
REMARK  948  A    between atoms: _3260  and  _3261
REMARK  949  A    between atoms: _3261  and  _3262
REMARK  950  A    between atoms: _3261  and  _3264
REMARK  951  A    between atoms: _3264  and  _3265
REMARK  952  A    between atoms: _3280  and  _3281
REMARK  953  A    between atoms: _3281  and  _3282
REMARK  954  A    between atoms: _3281  and  _3284
REMARK  955  A    between atoms: _3284  and  _3285
REMARK  956  A    between atoms: _3284  and  _3286
REMARK  957  A    between atoms: _3296  and  _3297
REMARK  958  A    between atoms: _3297  and  _3298
REMARK  959  A    between atoms: _3297  and  _3300
REMARK  960  A    between atoms: _3300  and  _3301
REMARK  961  A    between atoms: _3301  and  _3302
REMARK                            x       y       z     vdW  Elec       q    Type
REMARK                         _______ _______ _______ _____ _____    ______ ____
ROOT
ATOM      1  N   UNL     1      14.141  33.154  14.699  0.00  0.00    -0.273 NA
ATOM      2  H   UNL     1      14.998  32.674  14.954  0.00  0.00    +0.137 HD
ATOM      3  H   UNL     1      13.841  33.162  13.729  0.00  0.00    +0.137 HD
ENDROOT
TORSDOF 0
REMARK  Name = /Users/mlugowska/PhD/ML_residence_time_prediction/protein_files/5J20_protein.pdb
REMARK  961 active torsions:
REMARK  status: ('A' for Active; 'I' for Inactive)
REMARK    1  A    between atoms: _2  and  _3
REMARK    2  A    between atoms: _2  and  _5
REMARK    3  A    between atoms: _10  and  _11
REMARK    4  A    between atoms: _11  and  _12
REMARK    5  A    between atoms: _11  and  _14
REMARK    6  A    between atoms: _14  and  _15
REMARK    7  A    between atoms: _14  and  _16
REMARK    8  A    between atoms: _26  and  _27
REMARK    9  A    between atoms: _27  and  _28
REMARK   10  A    between atoms: _27  and  _30
REMARK   11  A    between atoms: _30  and  _31
REMARK   12  A    between atoms: _31  and  _32
REMARK   13  A    between atoms: _41  and  _42
REMARK   14  A    between atoms: _42  and  _43
REMARK   15  A    between atoms: _42  and  _45
REMARK   16  A    between atoms: _45  and  _46
REMARK   17  A    between atoms: _45  and  _47
REMARK   18  A    between atoms: _55  and  _56
REMARK   19  A    between atoms: _56  and  _57
REMARK   20  A    between atoms: _56  and  _59
REMARK   21  A    between atoms: _59  and  _60
REMARK   22  A    between atoms: _75  and  _76
REMARK   23  A    between atoms: _76  and  _77
REMARK   24  A    between atoms: _76  and  _79
REMARK   25  A    between atoms: _85  and  _86
REMARK   26  A    between atoms: _86  and  _87
REMARK   27  A    between atoms: _86  and  _89
REMARK   28  A    between atoms: _89  and  _90
REMARK   29  A    between atoms: _105  and  _106
REMARK   30  A    between atoms: _106  and  _107
REMARK   31  A    between atoms: _106  and  _109
REMARK   32  A    between atoms: _109  and  _110
REMARK   33  A    between atoms: _110  and  _111
REMARK   34  A    between atoms: _122  and  _123
REMARK   35  A    between atoms: _123  and  _124
REMARK   36  A    between atoms: _123  and  _126
REMARK   37  A    between atoms: _132  and  _133
REMARK   38  A    between atoms: _133  and  _134
REMARK   39  A    between atoms: _133  and  _136
REMARK   40  A    between atoms: _136  and  _137
REMARK   41  A    between atoms: _137  and  _138
REMARK   42  A    between atoms: _147  and  _148
REMARK   43  A    between atoms: _148  and  _149
REMARK   44  A    between atoms: _148  and  _151
REMARK   45  A    between atoms: _151  and  _152
REMARK   46  A    between atoms: _151  and  _153
REMARK   47  A    between atoms: _152  and  _154
REMARK   48  A    between atoms: _166  and  _167
REMARK   49  A    between atoms: _167  and  _168
REMARK   50  A    between atoms: _167  and  _170
REMARK   51  A    between atoms: _176  and  _177
REMARK   52  A    between atoms: _177  and  _178
REMARK   53  A    between atoms: _177  and  _180
REMARK   54  A    between atoms: _180  and  _181
REMARK   55  A    between atoms: _181  and  _182
REMARK   56  A    between atoms: _193  and  _194
REMARK   57  A    between atoms: _194  and  _195
REMARK   58  A    between atoms: _194  and  _197
REMARK   59  A    between atoms: _197  and  _198
REMARK   60  A    between atoms: _198  and  _199
REMARK   61  A    between atoms: _198  and  _200
REMARK   62  A    between atoms: _212  and  _213
REMARK   63  A    between atoms: _213  and  _214
REMARK   64  A    between atoms: _213  and  _216
REMARK   65  A    between atoms: _216  and  _217
REMARK   66  A    between atoms: _217  and  _218
REMARK   67  A    between atoms: _218  and  _219
REMARK   68  A    between atoms: _229  and  _230
REMARK   69  A    between atoms: _230  and  _231
REMARK   70  A    between atoms: _230  and  _233
REMARK   71  A    between atoms: _233  and  _234
REMARK   72  A    between atoms: _240  and  _241
REMARK   73  A    between atoms: _241  and  _242
REMARK   74  A    between atoms: _241  and  _244
REMARK   75  A    between atoms: _244  and  _245
REMARK   76  A    between atoms: _245  and  _246
REMARK   77  A    between atoms: _245  and  _247
REMARK   78  A    between atoms: _259  and  _260
REMARK   79  A    between atoms: _260  and  _261
REMARK   80  A    between atoms: _260  and  _263
REMARK   81  A    between atoms: _263  and  _264
REMARK   82  A    between atoms: _263  and  _265
REMARK   83  A    between atoms: _264  and  _266
REMARK   84  A    between atoms: _278  and  _279
REMARK   85  A    between atoms: _279  and  _280
REMARK   86  A    between atoms: _279  and  _282
REMARK   87  A    between atoms: _282  and  _283
REMARK   88  A    between atoms: _282  and  _284
REMARK   89  A    between atoms: _283  and  _285
REMARK   90  A    between atoms: _297  and  _298
REMARK   91  A    between atoms: _298  and  _299
REMARK   92  A    between atoms: _298  and  _301
REMARK   93  A    between atoms: _301  and  _302
REMARK   94  A    between atoms: _311  and  _312
REMARK   95  A    between atoms: _312  and  _313
REMARK   96  A    between atoms: _312  and  _315
REMARK   97  A    between atoms: _315  and  _316
REMARK   98  A    between atoms: _315  and  _317
REMARK   99  A    between atoms: _325  and  _326
REMARK  100  A    between atoms: _326  and  _327
REMARK  101  A    between atoms: _326  and  _329
REMARK  102  A    between atoms: _329  and  _330
REMARK  103  A    between atoms: _345  and  _346
REMARK  104  A    between atoms: _346  and  _347
REMARK  105  A    between atoms: _346  and  _349
REMARK  106  A    between atoms: _349  and  _350
REMARK  107  A    between atoms: _355  and  _356
REMARK  108  A    between atoms: _366  and  _367
REMARK  109  A    between atoms: _367  and  _368
REMARK  110  A    between atoms: _367  and  _370
REMARK  111  A    between atoms: _370  and  _371
REMARK  112  A    between atoms: _377  and  _378
REMARK  113  A    between atoms: _378  and  _379
REMARK  114  A    between atoms: _378  and  _381
REMARK  115  A    between atoms: _381  and  _382
REMARK  116  A    between atoms: _391  and  _392
REMARK  117  A    between atoms: _392  and  _393
REMARK  118  A    between atoms: _392  and  _395
REMARK  119  A    between atoms: _395  and  _396
REMARK  120  A    between atoms: _396  and  _397
REMARK  121  A    between atoms: _397  and  _398
REMARK  122  A    between atoms: _398  and  _399
REMARK  123  A    between atoms: _413  and  _414
REMARK  124  A    between atoms: _414  and  _415
REMARK  125  A    between atoms: _414  and  _417
REMARK  126  A    between atoms: _417  and  _418
REMARK  127  A    between atoms: _418  and  _419
REMARK  128  A    between atoms: _428  and  _429
REMARK  129  A    between atoms: _429  and  _430
REMARK  130  A    between atoms: _429  and  _432
REMARK  131  A    between atoms: _432  and  _433
REMARK  132  A    between atoms: _432  and  _434
REMARK  133  A    between atoms: _433  and  _435
REMARK  134  A    between atoms: _447  and  _448
REMARK  135  A    between atoms: _448  and  _449
REMARK  136  A    between atoms: _448  and  _451
REMARK  137  A    between atoms: _451  and  _452
REMARK  138  A    between atoms: _467  and  _468
REMARK  139  A    between atoms: _468  and  _469
REMARK  140  A    between atoms: _468  and  _471
REMARK  141  A    between atoms: _471  and  _472
REMARK  142  A    between atoms: _472  and  _473
REMARK  143  A    between atoms: _472  and  _474
REMARK  144  A    between atoms: _486  and  _487
REMARK  145  A    between atoms: _487  and  _488
REMARK  146  A    between atoms: _487  and  _490
REMARK  147  A    between atoms: _490  and  _491
REMARK  148  A    between atoms: _491  and  _492
REMARK  149  A    between atoms: _492  and  _493
REMARK  150  A    between atoms: _510  and  _511
REMARK  151  A    between atoms: _511  and  _512
REMARK  152  A    between atoms: _511  and  _514
REMARK  153  A    between atoms: _514  and  _515
REMARK  154  A    between atoms: _515  and  _516
REMARK  155  A    between atoms: _525  and  _526
REMARK  156  A    between atoms: _526  and  _527
REMARK  157  A    between atoms: _526  and  _529
REMARK  158  A    between atoms: _529  and  _530
REMARK  159  A    between atoms: _530  and  _531
REMARK  160  A    between atoms: _530  and  _532
REMARK  161  A    between atoms: _544  and  _545
REMARK  162  A    between atoms: _545  and  _546
REMARK  163  A    between atoms: _545  and  _548
REMARK  164  A    between atoms: _548  and  _549
REMARK  165  A    between atoms: _548  and  _550
REMARK  166  A    between atoms: _549  and  _551
REMARK  167  A    between atoms: _563  and  _564
REMARK  168  A    between atoms: _564  and  _565
REMARK  169  A    between atoms: _564  and  _567
REMARK  170  A    between atoms: _567  and  _568
REMARK  171  A    between atoms: _574  and  _575
REMARK  172  A    between atoms: _575  and  _576
REMARK  173  A    between atoms: _575  and  _578
REMARK  174  A    between atoms: _578  and  _579
REMARK  175  A    between atoms: _588  and  _589
REMARK  176  A    between atoms: _589  and  _590
REMARK  177  A    between atoms: _589  and  _592
REMARK  178  A    between atoms: _592  and  _593
REMARK  179  A    between atoms: _599  and  _600
REMARK  180  A    between atoms: _600  and  _601
REMARK  181  A    between atoms: _600  and  _603
REMARK  182  A    between atoms: _603  and  _604
REMARK  183  A    between atoms: _610  and  _611
REMARK  184  A    between atoms: _611  and  _612
REMARK  185  A    between atoms: _611  and  _614
REMARK  186  A    between atoms: _614  and  _615
REMARK  187  A    between atoms: _622  and  _623
REMARK  188  A    between atoms: _623  and  _624
REMARK  189  A    between atoms: _623  and  _626
REMARK  190  A    between atoms: _632  and  _633
REMARK  191  A    between atoms: _633  and  _634
REMARK  192  A    between atoms: _633  and  _636
REMARK  193  A    between atoms: _636  and  _637
REMARK  194  A    between atoms: _637  and  _638
REMARK  195  A    between atoms: _637  and  _639
REMARK  196  A    between atoms: _651  and  _652
REMARK  197  A    between atoms: _652  and  _653
REMARK  198  A    between atoms: _652  and  _655
REMARK  199  A    between atoms: _655  and  _656
REMARK  200  A    between atoms: _663  and  _664
REMARK  201  A    between atoms: _664  and  _665
REMARK  202  A    between atoms: _664  and  _667
REMARK  203  A    between atoms: _667  and  _668
REMARK  204  A    between atoms: _668  and  _669
REMARK  205  A    between atoms: _669  and  _670
REMARK  206  A    between atoms: _670  and  _671
REMARK  207  A    between atoms: _685  and  _686
REMARK  208  A    between atoms: _686  and  _687
REMARK  209  A    between atoms: _686  and  _689
REMARK  210  A    between atoms: _689  and  _690
REMARK  211  A    between atoms: _689  and  _691
REMARK  212  A    between atoms: _690  and  _692
REMARK  213  A    between atoms: _704  and  _705
REMARK  214  A    between atoms: _705  and  _706
REMARK  215  A    between atoms: _705  and  _708
REMARK  216  A    between atoms: _708  and  _709
REMARK  217  A    between atoms: _709  and  _710
REMARK  218  A    between atoms: _710  and  _711
REMARK  219  A    between atoms: _728  and  _729
REMARK  220  A    between atoms: _729  and  _730
REMARK  221  A    between atoms: _729  and  _732
REMARK  222  A    between atoms: _732  and  _733
REMARK  223  A    between atoms: _738  and  _739
REMARK  224  A    between atoms: _749  and  _750
REMARK  225  A    between atoms: _750  and  _751
REMARK  226  A    between atoms: _750  and  _753
REMARK  227  A    between atoms: _753  and  _754
REMARK  228  A    between atoms: _754  and  _755
REMARK  229  A    between atoms: _764  and  _765
REMARK  230  A    between atoms: _765  and  _766
REMARK  231  A    between atoms: _765  and  _768
REMARK  232  A    between atoms: _772  and  _773
REMARK  233  A    between atoms: _773  and  _774
REMARK  234  A    between atoms: _773  and  _776
REMARK  235  A    between atoms: _776  and  _777
REMARK  236  A    between atoms: _777  and  _778
REMARK  237  A    between atoms: _777  and  _779
REMARK  238  A    between atoms: _791  and  _792
REMARK  239  A    between atoms: _792  and  _793
REMARK  240  A    between atoms: _792  and  _795
REMARK  241  A    between atoms: _795  and  _796
REMARK  242  A    between atoms: _795  and  _797
REMARK  243  A    between atoms: _805  and  _806
REMARK  244  A    between atoms: _806  and  _807
REMARK  245  A    between atoms: _806  and  _809
REMARK  246  A    between atoms: _809  and  _810
REMARK  247  A    between atoms: _818  and  _819
REMARK  248  A    between atoms: _831  and  _832
REMARK  249  A    between atoms: _832  and  _833
REMARK  250  A    between atoms: _832  and  _835
REMARK  251  A    between atoms: _835  and  _836
REMARK  252  A    between atoms: _842  and  _843
REMARK  253  A    between atoms: _843  and  _844
REMARK  254  A    between atoms: _843  and  _846
REMARK  255  A    between atoms: _846  and  _847
REMARK  256  A    between atoms: _847  and  _848
REMARK  257  A    between atoms: _848  and  _849
REMARK  258  A    between atoms: _849  and  _850
REMARK  259  A    between atoms: _864  and  _865
REMARK  260  A    between atoms: _865  and  _866
REMARK  261  A    between atoms: _865  and  _868
REMARK  262  A    between atoms: _868  and  _869
REMARK  263  A    between atoms: _869  and  _870
REMARK  264  A    between atoms: _869  and  _871
REMARK  265  A    between atoms: _883  and  _884
REMARK  266  A    between atoms: _884  and  _885
REMARK  267  A    between atoms: _884  and  _887
REMARK  268  A    between atoms: _887  and  _888
REMARK  269  A    between atoms: _895  and  _896
REMARK  270  A    between atoms: _896  and  _897
REMARK  271  A    between atoms: _896  and  _899
REMARK  272  A    between atoms: _899  and  _900
REMARK  273  A    between atoms: _906  and  _907
REMARK  274  A    between atoms: _907  and  _908
REMARK  275  A    between atoms: _913  and  _914
REMARK  276  A    between atoms: _914  and  _915
REMARK  277  A    between atoms: _914  and  _917
REMARK  278  A    between atoms: _917  and  _918
REMARK  279  A    between atoms: _918  and  _919
REMARK  280  A    between atoms: _919  and  _920
REMARK  281  A    between atoms: _920  and  _921
REMARK  282  A    between atoms: _935  and  _936
REMARK  283  A    between atoms: _936  and  _937
REMARK  284  A    between atoms: _936  and  _939
REMARK  285  A    between atoms: _939  and  _940
REMARK  286  A    between atoms: _940  and  _941
REMARK  287  A    between atoms: _950  and  _951
REMARK  288  A    between atoms: _951  and  _952
REMARK  289  A    between atoms: _951  and  _954
REMARK  290  A    between atoms: _954  and  _955
REMARK  291  A    between atoms: _955  and  _956
REMARK  292  A    between atoms: _955  and  _957
REMARK  293  A    between atoms: _969  and  _970
REMARK  294  A    between atoms: _970  and  _971
REMARK  295  A    between atoms: _970  and  _973
REMARK  296  A    between atoms: _973  and  _974
REMARK  297  A    between atoms: _986  and  _987
REMARK  298  A    between atoms: _987  and  _988
REMARK  299  A    between atoms: _987  and  _990
REMARK  300  A    between atoms: _990  and  _991
REMARK  301  A    between atoms: _990  and  _992
REMARK  302  A    between atoms: _991  and  _993
REMARK  303  A    between atoms: _1005  and  _1006
REMARK  304  A    between atoms: _1006  and  _1007
REMARK  305  A    between atoms: _1006  and  _1009
REMARK  306  A    between atoms: _1009  and  _1010
REMARK  307  A    between atoms: _1019  and  _1020
REMARK  308  A    between atoms: _1020  and  _1021
REMARK  309  A    between atoms: _1020  and  _1023
REMARK  310  A    between atoms: _1023  and  _1024
REMARK  311  A    between atoms: _1024  and  _1025
REMARK  312  A    between atoms: _1024  and  _1026
REMARK  313  A    between atoms: _1038  and  _1039
REMARK  314  A    between atoms: _1039  and  _1040
REMARK  315  A    between atoms: _1039  and  _1042
REMARK  316  A    between atoms: _1042  and  _1043
REMARK  317  A    between atoms: _1042  and  _1044
REMARK  318  A    between atoms: _1043  and  _1045
REMARK  319  A    between atoms: _1058  and  _1059
REMARK  320  A    between atoms: _1071  and  _1072
REMARK  321  A    between atoms: _1072  and  _1073
REMARK  322  A    between atoms: _1072  and  _1075
REMARK  323  A    between atoms: _1075  and  _1076
REMARK  324  A    between atoms: _1085  and  _1086
REMARK  325  A    between atoms: _1086  and  _1087
REMARK  326  A    between atoms: _1086  and  _1089
REMARK  327  A    between atoms: _1089  and  _1090
REMARK  328  A    between atoms: _1090  and  _1091
REMARK  329  A    between atoms: _1091  and  _1092
REMARK  330  A    between atoms: _1092  and  _1093
REMARK  331  A    between atoms: _1107  and  _1108
REMARK  332  A    between atoms: _1108  and  _1109
REMARK  333  A    between atoms: _1108  and  _1111
REMARK  334  A    between atoms: _1111  and  _1112
REMARK  335  A    between atoms: _1112  and  _1113
REMARK  336  A    between atoms: _1124  and  _1125
REMARK  337  A    between atoms: _1125  and  _1126
REMARK  338  A    between atoms: _1125  and  _1128
REMARK  339  A    between atoms: _1128  and  _1129
REMARK  340  A    between atoms: _1136  and  _1137
REMARK  341  A    between atoms: _1137  and  _1138
REMARK  342  A    between atoms: _1137  and  _1140
REMARK  343  A    between atoms: _1140  and  _1141
REMARK  344  A    between atoms: _1141  and  _1142
REMARK  345  A    between atoms: _1142  and  _1143
REMARK  346  A    between atoms: _1160  and  _1161
REMARK  347  A    between atoms: _1161  and  _1162
REMARK  348  A    between atoms: _1161  and  _1164
REMARK  349  A    between atoms: _1164  and  _1165
REMARK  350  A    between atoms: _1164  and  _1166
REMARK  351  A    between atoms: _1174  and  _1175
REMARK  352  A    between atoms: _1175  and  _1176
REMARK  353  A    between atoms: _1175  and  _1178
REMARK  354  A    between atoms: _1178  and  _1179
REMARK  355  A    between atoms: _1179  and  _1180
REMARK  356  A    between atoms: _1179  and  _1181
REMARK  357  A    between atoms: _1193  and  _1194
REMARK  358  A    between atoms: _1194  and  _1195
REMARK  359  A    between atoms: _1194  and  _1197
REMARK  360  A    between atoms: _1197  and  _1198
REMARK  361  A    between atoms: _1197  and  _1199
REMARK  362  A    between atoms: _1207  and  _1208
REMARK  363  A    between atoms: _1208  and  _1209
REMARK  364  A    between atoms: _1208  and  _1211
REMARK  365  A    between atoms: _1211  and  _1212
REMARK  366  A    between atoms: _1211  and  _1213
REMARK  367  A    between atoms: _1212  and  _1214
REMARK  368  A    between atoms: _1226  and  _1227
REMARK  369  A    between atoms: _1227  and  _1228
REMARK  370  A    between atoms: _1227  and  _1230
REMARK  371  A    between atoms: _1230  and  _1231
REMARK  372  A    between atoms: _1230  and  _1232
REMARK  373  A    between atoms: _1242  and  _1243
REMARK  374  A    between atoms: _1243  and  _1244
REMARK  375  A    between atoms: _1243  and  _1246
REMARK  376  A    between atoms: _1246  and  _1247
REMARK  377  A    between atoms: _1254  and  _1255
REMARK  378  A    between atoms: _1255  and  _1256
REMARK  379  A    between atoms: _1255  and  _1258
REMARK  380  A    between atoms: _1258  and  _1259
REMARK  381  A    between atoms: _1258  and  _1260
REMARK  382  A    between atoms: _1268  and  _1269
REMARK  383  A    between atoms: _1269  and  _1270
REMARK  384  A    between atoms: _1275  and  _1276
REMARK  385  A    between atoms: _1276  and  _1277
REMARK  386  A    between atoms: _1276  and  _1279
REMARK  387  A    between atoms: _1279  and  _1280
REMARK  388  A    between atoms: _1279  and  _1281
REMARK  389  A    between atoms: _1280  and  _1282
REMARK  390  A    between atoms: _1294  and  _1295
REMARK  391  A    between atoms: _1295  and  _1296
REMARK  392  A    between atoms: _1301  and  _1302
REMARK  393  A    between atoms: _1302  and  _1303
REMARK  394  A    between atoms: _1302  and  _1305
REMARK  395  A    between atoms: _1305  and  _1306
REMARK  396  A    between atoms: _1306  and  _1307
REMARK  397  A    between atoms: _1307  and  _1308
REMARK  398  A    between atoms: _1318  and  _1319
REMARK  399  A    between atoms: _1319  and  _1320
REMARK  400  A    between atoms: _1319  and  _1322
REMARK  401  A    between atoms: _1322  and  _1323
REMARK  402  A    between atoms: _1322  and  _1324
REMARK  403  A    between atoms: _1332  and  _1333
REMARK  404  A    between atoms: _1333  and  _1334
REMARK  405  A    between atoms: _1333  and  _1336
REMARK  406  A    between atoms: _1336  and  _1337
REMARK  407  A    between atoms: _1337  and  _1338
REMARK  408  A    between atoms: _1338  and  _1339
REMARK  409  A    between atoms: _1339  and  _1340
REMARK  410  A    between atoms: _1354  and  _1355
REMARK  411  A    between atoms: _1355  and  _1356
REMARK  412  A    between atoms: _1355  and  _1358
REMARK  413  A    between atoms: _1364  and  _1365
REMARK  414  A    between atoms: _1365  and  _1366
REMARK  415  A    between atoms: _1365  and  _1368
REMARK  416  A    between atoms: _1368  and  _1369
REMARK  417  A    between atoms: _1376  and  _1377
REMARK  418  A    between atoms: _1377  and  _1378
REMARK  419  A    between atoms: _1377  and  _1380
REMARK  420  A    between atoms: _1380  and  _1381
REMARK  421  A    between atoms: _1381  and  _1382
REMARK  422  A    between atoms: _1381  and  _1383
REMARK  423  A    between atoms: _1395  and  _1396
REMARK  424  A    between atoms: _1396  and  _1399
REMARK  425  A    between atoms: _1399  and  _1400
REMARK  426  A    between atoms: _1399  and  _1401
REMARK  427  A    between atoms: _1400  and  _1402
REMARK  428  A    between atoms: _1422  and  _1425
REMARK  429  A    between atoms: _1424  and  _1428
REMARK  430  A    between atoms: _1425  and  _1427
REMARK  431  A    between atoms: _1443  and  _1444
REMARK  432  A    between atoms: _1443  and  _1446
REMARK  433  A    between atoms: _1446  and  _1447
REMARK  434  A    between atoms: _1457  and  _1458
REMARK  435  A    between atoms: _1458  and  _1459
REMARK  436  A    between atoms: _1458  and  _1461
REMARK  437  A    between atoms: _1461  and  _1462
REMARK  438  A    between atoms: _1462  and  _1463
REMARK  439  A    between atoms: _1462  and  _1464
REMARK  440  A    between atoms: _1476  and  _1477
REMARK  441  A    between atoms: _1477  and  _1478
REMARK  442  A    between atoms: _1483  and  _1484
REMARK  443  A    between atoms: _1484  and  _1485
REMARK  444  A    between atoms: _1484  and  _1487
REMARK  445  A    between atoms: _1487  and  _1488
REMARK  446  A    between atoms: _1487  and  _1489
REMARK  447  A    between atoms: _1497  and  _1498
REMARK  448  A    between atoms: _1498  and  _1499
REMARK  449  A    between atoms: _1498  and  _1501
REMARK  450  A    between atoms: _1501  and  _1502
REMARK  451  A    between atoms: _1501  and  _1503
REMARK  452  A    between atoms: _1502  and  _1504
REMARK  453  A    between atoms: _1516  and  _1517
REMARK  454  A    between atoms: _1517  and  _1518
REMARK  455  A    between atoms: _1517  and  _1520
REMARK  456  A    between atoms: _1526  and  _1527
REMARK  457  A    between atoms: _1527  and  _1528
REMARK  458  A    between atoms: _1527  and  _1530
REMARK  459  A    between atoms: _1530  and  _1531
REMARK  460  A    between atoms: _1531  and  _1532
REMARK  461  A    between atoms: _1532  and  _1533
REMARK  462  A    between atoms: _1533  and  _1534
REMARK  463  A    between atoms: _1548  and  _1549
REMARK  464  A    between atoms: _1549  and  _1550
REMARK  465  A    between atoms: _1549  and  _1552
REMARK  466  A    between atoms: _1552  and  _1553
REMARK  467  A    between atoms: _1559  and  _1560
REMARK  468  A    between atoms: _1560  and  _1561
REMARK  469  A    between atoms: _1566  and  _1567
REMARK  470  A    between atoms: _1567  and  _1568
REMARK  471  A    between atoms: _1567  and  _1570
REMARK  472  A    between atoms: _1570  and  _1571
REMARK  473  A    between atoms: _1570  and  _1572
REMARK  474  A    between atoms: _1580  and  _1581
REMARK  475  A    between atoms: _1581  and  _1582
REMARK  476  A    between atoms: _1581  and  _1584
REMARK  477  A    between atoms: _1584  and  _1585
REMARK  478  A    between atoms: _1585  and  _1586
REMARK  479  A    between atoms: _1586  and  _1587
REMARK  480  A    between atoms: _1587  and  _1588
REMARK  481  A    between atoms: _1602  and  _1603
REMARK  482  A    between atoms: _1603  and  _1604
REMARK  483  A    between atoms: _1603  and  _1606
REMARK  484  A    between atoms: _1612  and  _1613
REMARK  485  A    between atoms: _1613  and  _1614
REMARK  486  A    between atoms: _1613  and  _1616
REMARK  487  A    between atoms: _1616  and  _1617
REMARK  488  A    between atoms: _1632  and  _1633
REMARK  489  A    between atoms: _1633  and  _1634
REMARK  490  A    between atoms: _1633  and  _1636
REMARK  491  A    between atoms: _1636  and  _1637
REMARK  492  A    between atoms: _1637  and  _1638
REMARK  493  A    between atoms: _1638  and  _1639
REMARK  494  A    between atoms: _1649  and  _1650
REMARK  495  A    between atoms: _1650  and  _1651
REMARK  496  A    between atoms: _1650  and  _1653
REMARK  497  A    between atoms: _1653  and  _1654
REMARK  498  A    between atoms: _1654  and  _1655
REMARK  499  A    between atoms: _1664  and  _1665
REMARK  500  A    between atoms: _1665  and  _1666
REMARK  501  A    between atoms: _1665  and  _1668
REMARK  502  A    between atoms: _1674  and  _1675
REMARK  503  A    between atoms: _1675  and  _1676
REMARK  504  A    between atoms: _1675  and  _1678
REMARK  505  A    between atoms: _1678  and  _1679
REMARK  506  A    between atoms: _1679  and  _1680
REMARK  507  A    between atoms: _1679  and  _1681
REMARK  508  A    between atoms: _1693  and  _1694
REMARK  509  A    between atoms: _1694  and  _1695
REMARK  510  A    between atoms: _1694  and  _1697
REMARK  511  A    between atoms: _1697  and  _1698
REMARK  512  A    between atoms: _1698  and  _1699
REMARK  513  A    between atoms: _1710  and  _1711
REMARK  514  A    between atoms: _1711  and  _1712
REMARK  515  A    between atoms: _1711  and  _1714
REMARK  516  A    between atoms: _1720  and  _1721
REMARK  517  A    between atoms: _1721  and  _1722
REMARK  518  A    between atoms: _1727  and  _1728
REMARK  519  A    between atoms: _1728  and  _1729
REMARK  520  A    between atoms: _1728  and  _1731
REMARK  521  A    between atoms: _1737  and  _1738
REMARK  522  A    between atoms: _1738  and  _1739
REMARK  523  A    between atoms: _1738  and  _1741
REMARK  524  A    between atoms: _1741  and  _1742
REMARK  525  A    between atoms: _1749  and  _1750
REMARK  526  A    between atoms: _1750  and  _1751
REMARK  527  A    between atoms: _1750  and  _1753
REMARK  528  A    between atoms: _1753  and  _1754
REMARK  529  A    between atoms: _1753  and  _1755
REMARK  530  A    between atoms: _1754  and  _1756
REMARK  531  A    between atoms: _1768  and  _1769
REMARK  532  A    between atoms: _1769  and  _1772
REMARK  533  A    between atoms: _1772  and  _1773
REMARK  534  A    between atoms: _1791  and  _1793
REMARK  535  A    between atoms: _1792  and  _1794
REMARK  536  A    between atoms: _1814  and  _1815
REMARK  537  A    between atoms: _1814  and  _1817
REMARK  538  A    between atoms: _1817  and  _1818
REMARK  539  A    between atoms: _1817  and  _1819
REMARK  540  A    between atoms: _1818  and  _1820
REMARK  541  A    between atoms: _1833  and  _1834
REMARK  542  A    between atoms: _1834  and  _1835
REMARK  543  A    between atoms: _1840  and  _1841
REMARK  544  A    between atoms: _1841  and  _1842
REMARK  545  A    between atoms: _1841  and  _1844
REMARK  546  A    between atoms: _1844  and  _1845
REMARK  547  A    between atoms: _1845  and  _1846
REMARK  548  A    between atoms: _1857  and  _1858
REMARK  549  A    between atoms: _1858  and  _1859
REMARK  550  A    between atoms: _1858  and  _1861
REMARK  551  A    between atoms: _1861  and  _1862
REMARK  552  A    between atoms: _1877  and  _1878
REMARK  553  A    between atoms: _1878  and  _1879
REMARK  554  A    between atoms: _1884  and  _1885
REMARK  555  A    between atoms: _1885  and  _1886
REMARK  556  A    between atoms: _1885  and  _1888
REMARK  557  A    between atoms: _1888  and  _1889
REMARK  558  A    between atoms: _1888  and  _1890
REMARK  559  A    between atoms: _1900  and  _1901
REMARK  560  A    between atoms: _1901  and  _1902
REMARK  561  A    between atoms: _1907  and  _1908
REMARK  562  A    between atoms: _1908  and  _1909
REMARK  563  A    between atoms: _1908  and  _1911
REMARK  564  A    between atoms: _1911  and  _1912
REMARK  565  A    between atoms: _1927  and  _1928
REMARK  566  A    between atoms: _1928  and  _1929
REMARK  567  A    between atoms: _1928  and  _1931
REMARK  568  A    between atoms: _1931  and  _1932
REMARK  569  A    between atoms: _1937  and  _1938
REMARK  570  A    between atoms: _1948  and  _1949
REMARK  571  A    between atoms: _1949  and  _1950
REMARK  572  A    between atoms: _1949  and  _1952
REMARK  573  A    between atoms: _1952  and  _1953
REMARK  574  A    between atoms: _1959  and  _1960
REMARK  575  A    between atoms: _1960  and  _1961
REMARK  576  A    between atoms: _1960  and  _1963
REMARK  577  A    between atoms: _1969  and  _1970
REMARK  578  A    between atoms: _1970  and  _1971
REMARK  579  A    between atoms: _1970  and  _1973
REMARK  580  A    between atoms: _1973  and  _1974
REMARK  581  A    between atoms: _1979  and  _1980
REMARK  582  A    between atoms: _1990  and  _1991
REMARK  583  A    between atoms: _1991  and  _1992
REMARK  584  A    between atoms: _1991  and  _1994
REMARK  585  A    between atoms: _1994  and  _1995
REMARK  586  A    between atoms: _1995  and  _1996
REMARK  587  A    between atoms: _1995  and  _1997
REMARK  588  A    between atoms: _2009  and  _2010
REMARK  589  A    between atoms: _2010  and  _2011
REMARK  590  A    between atoms: _2010  and  _2013
REMARK  591  A    between atoms: _2013  and  _2014
REMARK  592  A    between atoms: _2013  and  _2015
REMARK  593  A    between atoms: _2025  and  _2026
REMARK  594  A    between atoms: _2026  and  _2027
REMARK  595  A    between atoms: _2026  and  _2029
REMARK  596  A    between atoms: _2035  and  _2036
REMARK  597  A    between atoms: _2036  and  _2037
REMARK  598  A    between atoms: _2036  and  _2039
REMARK  599  A    between atoms: _2039  and  _2040
REMARK  600  A    between atoms: _2040  and  _2041
REMARK  601  A    between atoms: _2050  and  _2051
REMARK  602  A    between atoms: _2051  and  _2052
REMARK  603  A    between atoms: _2051  and  _2054
REMARK  604  A    between atoms: _2054  and  _2055
REMARK  605  A    between atoms: _2055  and  _2056
REMARK  606  A    between atoms: _2056  and  _2057
REMARK  607  A    between atoms: _2057  and  _2058
REMARK  608  A    between atoms: _2072  and  _2073
REMARK  609  A    between atoms: _2073  and  _2074
REMARK  610  A    between atoms: _2073  and  _2076
REMARK  611  A    between atoms: _2076  and  _2077
REMARK  612  A    between atoms: _2076  and  _2078
REMARK  613  A    between atoms: _2088  and  _2089
REMARK  614  A    between atoms: _2089  and  _2090
REMARK  615  A    between atoms: _2089  and  _2092
REMARK  616  A    between atoms: _2092  and  _2093
REMARK  617  A    between atoms: _2092  and  _2094
REMARK  618  A    between atoms: _2102  and  _2103
REMARK  619  A    between atoms: _2103  and  _2104
REMARK  620  A    between atoms: _2103  and  _2106
REMARK  621  A    between atoms: _2106  and  _2107
REMARK  622  A    between atoms: _2106  and  _2108
REMARK  623  A    between atoms: _2118  and  _2119
REMARK  624  A    between atoms: _2119  and  _2120
REMARK  625  A    between atoms: _2119  and  _2122
REMARK  626  A    between atoms: _2122  and  _2123
REMARK  627  A    between atoms: _2122  and  _2124
REMARK  628  A    between atoms: _2123  and  _2125
REMARK  629  A    between atoms: _2137  and  _2138
REMARK  630  A    between atoms: _2138  and  _2139
REMARK  631  A    between atoms: _2138  and  _2141
REMARK  632  A    between atoms: _2141  and  _2142
REMARK  633  A    between atoms: _2141  and  _2143
REMARK  634  A    between atoms: _2151  and  _2152
REMARK  635  A    between atoms: _2152  and  _2153
REMARK  636  A    between atoms: _2152  and  _2155
REMARK  637  A    between atoms: _2155  and  _2156
REMARK  638  A    between atoms: _2156  and  _2157
REMARK  639  A    between atoms: _2157  and  _2158
REMARK  640  A    between atoms: _2158  and  _2159
REMARK  641  A    between atoms: _2173  and  _2174
REMARK  642  A    between atoms: _2174  and  _2175
REMARK  643  A    between atoms: _2174  and  _2177
REMARK  644  A    between atoms: _2177  and  _2178
REMARK  645  A    between atoms: _2190  and  _2191
REMARK  646  A    between atoms: _2191  and  _2192
REMARK  647  A    between atoms: _2191  and  _2194
REMARK  648  A    between atoms: _2194  and  _2195
REMARK  649  A    between atoms: _2204  and  _2205
REMARK  650  A    between atoms: _2205  and  _2206
REMARK  651  A    between atoms: _2205  and  _2208
REMARK  652  A    between atoms: _2208  and  _2209
REMARK  653  A    between atoms: _2216  and  _2217
REMARK  654  A    between atoms: _2217  and  _2218
REMARK  655  A    between atoms: _2217  and  _2220
REMARK  656  A    between atoms: _2220  and  _2221
REMARK  657  A    between atoms: _2228  and  _2229
REMARK  658  A    between atoms: _2229  and  _2230
REMARK  659  A    between atoms: _2229  and  _2232
REMARK  660  A    between atoms: _2232  and  _2233
REMARK  661  A    between atoms: _2233  and  _2234
REMARK  662  A    between atoms: _2243  and  _2244
REMARK  663  A    between atoms: _2244  and  _2245
REMARK  664  A    between atoms: _2244  and  _2247
REMARK  665  A    between atoms: _2247  and  _2248
REMARK  666  A    between atoms: _2248  and  _2249
REMARK  667  A    between atoms: _2260  and  _2261
REMARK  668  A    between atoms: _2261  and  _2262
REMARK  669  A    between atoms: _2261  and  _2264
REMARK  670  A    between atoms: _2264  and  _2265
REMARK  671  A    between atoms: _2270  and  _2271
REMARK  672  A    between atoms: _2281  and  _2282
REMARK  673  A    between atoms: _2282  and  _2283
REMARK  674  A    between atoms: _2282  and  _2285
REMARK  675  A    between atoms: _2291  and  _2292
REMARK  676  A    between atoms: _2292  and  _2293
REMARK  677  A    between atoms: _2292  and  _2295
REMARK  678  A    between atoms: _2295  and  _2296
REMARK  679  A    between atoms: _2315  and  _2316
REMARK  680  A    between atoms: _2316  and  _2317
REMARK  681  A    between atoms: _2316  and  _2319
REMARK  682  A    between atoms: _2319  and  _2320
REMARK  683  A    between atoms: _2320  and  _2321
REMARK  684  A    between atoms: _2330  and  _2331
REMARK  685  A    between atoms: _2331  and  _2332
REMARK  686  A    between atoms: _2331  and  _2334
REMARK  687  A    between atoms: _2334  and  _2335
REMARK  688  A    between atoms: _2341  and  _2342
REMARK  689  A    between atoms: _2342  and  _2343
REMARK  690  A    between atoms: _2342  and  _2345
REMARK  691  A    between atoms: _2345  and  _2346
REMARK  692  A    between atoms: _2352  and  _2353
REMARK  693  A    between atoms: _2353  and  _2354
REMARK  694  A    between atoms: _2353  and  _2356
REMARK  695  A    between atoms: _2362  and  _2363
REMARK  696  A    between atoms: _2363  and  _2364
REMARK  697  A    between atoms: _2369  and  _2370
REMARK  698  A    between atoms: _2370  and  _2371
REMARK  699  A    between atoms: _2376  and  _2377
REMARK  700  A    between atoms: _2377  and  _2378
REMARK  701  A    between atoms: _2377  and  _2380
REMARK  702  A    between atoms: _2380  and  _2381
REMARK  703  A    between atoms: _2387  and  _2388
REMARK  704  A    between atoms: _2388  and  _2389
REMARK  705  A    between atoms: _2388  and  _2391
REMARK  706  A    between atoms: _2391  and  _2392
REMARK  707  A    between atoms: _2407  and  _2408
REMARK  708  A    between atoms: _2408  and  _2409
REMARK  709  A    between atoms: _2408  and  _2411
REMARK  710  A    between atoms: _2411  and  _2412
REMARK  711  A    between atoms: _2411  and  _2413
REMARK  712  A    between atoms: _2421  and  _2422
REMARK  713  A    between atoms: _2422  and  _2423
REMARK  714  A    between atoms: _2422  and  _2425
REMARK  715  A    between atoms: _2425  and  _2426
REMARK  716  A    between atoms: _2425  and  _2427
REMARK  717  A    between atoms: _2437  and  _2438
REMARK  718  A    between atoms: _2438  and  _2439
REMARK  719  A    between atoms: _2438  and  _2441
REMARK  720  A    between atoms: _2441  and  _2442
REMARK  721  A    between atoms: _2442  and  _2443
REMARK  722  A    between atoms: _2443  and  _2444
REMARK  723  A    between atoms: _2461  and  _2462
REMARK  724  A    between atoms: _2462  and  _2463
REMARK  725  A    between atoms: _2462  and  _2465
REMARK  726  A    between atoms: _2465  and  _2466
REMARK  727  A    between atoms: _2465  and  _2467
REMARK  728  A    between atoms: _2475  and  _2476
REMARK  729  A    between atoms: _2476  and  _2477
REMARK  730  A    between atoms: _2476  and  _2479
REMARK  731  A    between atoms: _2479  and  _2480
REMARK  732  A    between atoms: _2487  and  _2488
REMARK  733  A    between atoms: _2488  and  _2489
REMARK  734  A    between atoms: _2488  and  _2491
REMARK  735  A    between atoms: _2491  and  _2492
REMARK  736  A    between atoms: _2491  and  _2493
REMARK  737  A    between atoms: _2501  and  _2502
REMARK  738  A    between atoms: _2502  and  _2503
REMARK  739  A    between atoms: _2508  and  _2509
REMARK  740  A    between atoms: _2509  and  _2510
REMARK  741  A    between atoms: _2509  and  _2512
REMARK  742  A    between atoms: _2512  and  _2513
REMARK  743  A    between atoms: _2513  and  _2514
REMARK  744  A    between atoms: _2524  and  _2525
REMARK  745  A    between atoms: _2537  and  _2538
REMARK  746  A    between atoms: _2538  and  _2539
REMARK  747  A    between atoms: _2538  and  _2541
REMARK  748  A    between atoms: _2541  and  _2542
REMARK  749  A    between atoms: _2542  and  _2543
REMARK  750  A    between atoms: _2543  and  _2544
REMARK  751  A    between atoms: _2554  and  _2555
REMARK  752  A    between atoms: _2555  and  _2556
REMARK  753  A    between atoms: _2561  and  _2562
REMARK  754  A    between atoms: _2562  and  _2563
REMARK  755  A    between atoms: _2562  and  _2565
REMARK  756  A    between atoms: _2565  and  _2566
REMARK  757  A    between atoms: _2566  and  _2567
REMARK  758  A    between atoms: _2567  and  _2568
REMARK  759  A    between atoms: _2585  and  _2586
REMARK  760  A    between atoms: _2586  and  _2587
REMARK  761  A    between atoms: _2592  and  _2593
REMARK  762  A    between atoms: _2593  and  _2594
REMARK  763  A    between atoms: _2593  and  _2596
REMARK  764  A    between atoms: _2596  and  _2597
REMARK  765  A    between atoms: _2596  and  _2598
REMARK  766  A    between atoms: _2606  and  _2607
REMARK  767  A    between atoms: _2607  and  _2608
REMARK  768  A    between atoms: _2607  and  _2610
REMARK  769  A    between atoms: _2610  and  _2611
REMARK  770  A    between atoms: _2611  and  _2612
REMARK  771  A    between atoms: _2612  and  _2613
REMARK  772  A    between atoms: _2613  and  _2614
REMARK  773  A    between atoms: _2628  and  _2629
REMARK  774  A    between atoms: _2629  and  _2630
REMARK  775  A    between atoms: _2629  and  _2632
REMARK  776  A    between atoms: _2632  and  _2633
REMARK  777  A    between atoms: _2632  and  _2634
REMARK  778  A    between atoms: _2644  and  _2645
REMARK  779  A    between atoms: _2645  and  _2646
REMARK  780  A    between atoms: _2645  and  _2648
REMARK  781  A    between atoms: _2648  and  _2649
REMARK  782  A    between atoms: _2648  and  _2650
REMARK  783  A    between atoms: _2649  and  _2651
REMARK  784  A    between atoms: _2663  and  _2664
REMARK  785  A    between atoms: _2664  and  _2665
REMARK  786  A    between atoms: _2664  and  _2667
REMARK  787  A    between atoms: _2667  and  _2668
REMARK  788  A    between atoms: _2668  and  _2669
REMARK  789  A    between atoms: _2668  and  _2670
REMARK  790  A    between atoms: _2682  and  _2683
REMARK  791  A    between atoms: _2683  and  _2684
REMARK  792  A    between atoms: _2683  and  _2686
REMARK  793  A    between atoms: _2686  and  _2687
REMARK  794  A    between atoms: _2699  and  _2700
REMARK  795  A    between atoms: _2700  and  _2701
REMARK  796  A    between atoms: _2700  and  _2703
REMARK  797  A    between atoms: _2703  and  _2704
REMARK  798  A    between atoms: _2704  and  _2705
REMARK  799  A    between atoms: _2704  and  _2706
REMARK  800  A    between atoms: _2718  and  _2719
REMARK  801  A    between atoms: _2719  and  _2720
REMARK  802  A    between atoms: _2719  and  _2722
REMARK  803  A    between atoms: _2722  and  _2723
REMARK  804  A    between atoms: _2723  and  _2724
REMARK  805  A    between atoms: _2724  and  _2725
REMARK  806  A    between atoms: _2725  and  _2726
REMARK  807  A    between atoms: _2740  and  _2741
REMARK  808  A    between atoms: _2741  and  _2742
REMARK  809  A    between atoms: _2741  and  _2744
REMARK  810  A    between atoms: _2744  and  _2745
REMARK  811  A    between atoms: _2745  and  _2746
REMARK  812  A    between atoms: _2755  and  _2756
REMARK  813  A    between atoms: _2756  and  _2757
REMARK  814  A    between atoms: _2756  and  _2759
REMARK  815  A    between atoms: _2759  and  _2760
REMARK  816  A    between atoms: _2767  and  _2768
REMARK  817  A    between atoms: _2768  and  _2769
REMARK  818  A    between atoms: _2768  and  _2771
REMARK  819  A    between atoms: _2771  and  _2772
REMARK  820  A    between atoms: _2772  and  _2773
REMARK  821  A    between atoms: _2784  and  _2785
REMARK  822  A    between atoms: _2785  and  _2786
REMARK  823  A    between atoms: _2785  and  _2788
REMARK  824  A    between atoms: _2788  and  _2789
REMARK  825  A    between atoms: _2788  and  _2790
REMARK  826  A    between atoms: _2798  and  _2799
REMARK  827  A    between atoms: _2799  and  _2800
REMARK  828  A    between atoms: _2799  and  _2802
REMARK  829  A    between atoms: _2802  and  _2803
REMARK  830  A    between atoms: _2803  and  _2804
REMARK  831  A    between atoms: _2813  and  _2814
REMARK  832  A    between atoms: _2814  and  _2815
REMARK  833  A    between atoms: _2814  and  _2817
REMARK  834  A    between atoms: _2817  and  _2818
REMARK  835  A    between atoms: _2823  and  _2824
REMARK  836  A    between atoms: _2834  and  _2835
REMARK  837  A    between atoms: _2835  and  _2838
REMARK  838  A    between atoms: _2838  and  _2839
REMARK  839  A    between atoms: _2839  and  _2840
REMARK  840  A    between atoms: _2839  and  _2841
REMARK  841  A    between atoms: _2884  and  _2885
REMARK  842  A    between atoms: _2884  and  _2887
REMARK  843  A    between atoms: _2887  and  _2888
REMARK  844  A    between atoms: _2888  and  _2889
REMARK  845  A    between atoms: _2899  and  _2900
REMARK  846  A    between atoms: _2900  and  _2901
REMARK  847  A    between atoms: _2900  and  _2903
REMARK  848  A    between atoms: _2903  and  _2904
REMARK  849  A    between atoms: _2904  and  _2905
REMARK  850  A    between atoms: _2905  and  _2906
REMARK  851  A    between atoms: _2923  and  _2924
REMARK  852  A    between atoms: _2924  and  _2925
REMARK  853  A    between atoms: _2924  and  _2927
REMARK  854  A    between atoms: _2927  and  _2928
REMARK  855  A    between atoms: _2928  and  _2929
REMARK  856  A    between atoms: _2929  and  _2930
REMARK  857  A    between atoms: _2947  and  _2948
REMARK  858  A    between atoms: _2948  and  _2949
REMARK  859  A    between atoms: _2948  and  _2951
REMARK  860  A    between atoms: _2951  and  _2952
REMARK  861  A    between atoms: _2951  and  _2953
REMARK  862  A    between atoms: _2952  and  _2954
REMARK  863  A    between atoms: _2966  and  _2967
REMARK  864  A    between atoms: _2967  and  _2968
REMARK  865  A    between atoms: _2967  and  _2970
REMARK  866  A    between atoms: _2970  and  _2971
REMARK  867  A    between atoms: _2971  and  _2972
REMARK  868  A    between atoms: _2972  and  _2973
REMARK  869  A    between atoms: _2973  and  _2974
REMARK  870  A    between atoms: _2988  and  _2989
REMARK  871  A    between atoms: _2989  and  _2990
REMARK  872  A    between atoms: _2989  and  _2992
REMARK  873  A    between atoms: _2992  and  _2993
REMARK  874  A    between atoms: _2993  and  _2994
REMARK  875  A    between atoms: _3003  and  _3004
REMARK  876  A    between atoms: _3004  and  _3005
REMARK  877  A    between atoms: _3004  and  _3007
REMARK  878  A    between atoms: _3007  and  _3008
REMARK  879  A    between atoms: _3007  and  _3009
REMARK  880  A    between atoms: _3008  and  _3010
REMARK  881  A    between atoms: _3022  and  _3023
REMARK  882  A    between atoms: _3023  and  _3024
REMARK  883  A    between atoms: _3023  and  _3026
REMARK  884  A    between atoms: _3026  and  _3027
REMARK  885  A    between atoms: _3026  and  _3028
REMARK  886  A    between atoms: _3038  and  _3039
REMARK  887  A    between atoms: _3039  and  _3040
REMARK  888  A    between atoms: _3039  and  _3042
REMARK  889  A    between atoms: _3042  and  _3043
REMARK  890  A    between atoms: _3043  and  _3044
REMARK  891  A    between atoms: _3044  and  _3045
REMARK  892  A    between atoms: _3045  and  _3046
REMARK  893  A    between atoms: _3060  and  _3061
REMARK  894  A    between atoms: _3061  and  _3062
REMARK  895  A    between atoms: _3061  and  _3064
REMARK  896  A    between atoms: _3064  and  _3065
REMARK  897  A    between atoms: _3065  and  _3066
REMARK  898  A    between atoms: _3066  and  _3067
REMARK  899  A    between atoms: _3067  and  _3068
REMARK  900  A    between atoms: _3082  and  _3083
REMARK  901  A    between atoms: _3083  and  _3084
REMARK  902  A    between atoms: _3083  and  _3086
REMARK  903  A    between atoms: _3086  and  _3087
REMARK  904  A    between atoms: _3099  and  _3100
REMARK  905  A    between atoms: _3100  and  _3101
REMARK  906  A    between atoms: _3100  and  _3103
REMARK  907  A    between atoms: _3103  and  _3104
REMARK  908  A    between atoms: _3110  and  _3111
REMARK  909  A    between atoms: _3111  and  _3112
REMARK  910  A    between atoms: _3111  and  _3114
REMARK  911  A    between atoms: _3114  and  _3115
REMARK  912  A    between atoms: _3115  and  _3116
REMARK  913  A    between atoms: _3127  and  _3128
REMARK  914  A    between atoms: _3128  and  _3129
REMARK  915  A    between atoms: _3128  and  _3131
REMARK  916  A    between atoms: _3131  and  _3132
REMARK  917  A    between atoms: _3147  and  _3148
REMARK  918  A    between atoms: _3148  and  _3149
REMARK  919  A    between atoms: _3148  and  _3151
REMARK  920  A    between atoms: _3151  and  _3152
REMARK  921  A    between atoms: _3151  and  _3153
REMARK  922  A    between atoms: _3152  and  _3154
REMARK  923  A    between atoms: _3166  and  _3167
REMARK  924  A    between atoms: _3167  and  _3168
REMARK  925  A    between atoms: _3173  and  _3174
REMARK  926  A    between atoms: _3174  and  _3175
REMARK  927  A    between atoms: _3174  and  _3177
REMARK  928  A    between atoms: _3177  and  _3178
REMARK  929  A    between atoms: _3183  and  _3184
REMARK  930  A    between atoms: _3195  and  _3196
REMARK  931  A    between atoms: _3208  and  _3209
REMARK  932  A    between atoms: _3209  and  _3210
REMARK  933  A    between atoms: _3209  and  _3212
REMARK  934  A    between atoms: _3212  and  _3213
REMARK  935  A    between atoms: _3212  and  _3214
REMARK  936  A    between atoms: _3213  and  _3215
REMARK  937  A    between atoms: _3227  and  _3228
REMARK  938  A    between atoms: _3228  and  _3229
REMARK  939  A    between atoms: _3228  and  _3231
REMARK  940  A    between atoms: _3231  and  _3232
REMARK  941  A    between atoms: _3231  and  _3233
REMARK  942  A    between atoms: _3241  and  _3242
REMARK  943  A    between atoms: _3242  and  _3243
REMARK  944  A    between atoms: _3242  and  _3245
REMARK  945  A    between atoms: _3245  and  _3246
REMARK  946  A    between atoms: _3246  and  _3247
REMARK  947  A    between atoms: _3246  and  _3248
REMARK  948  A    between atoms: _3260  and  _3261
REMARK  949  A    between atoms: _3261  and  _3262
REMARK  950  A    between atoms: _3261  and  _3264
REMARK  951  A    between atoms: _3264  and  _3265
REMARK  952  A    between atoms: _3280  and  _3281
REMARK  953  A    between atoms: _3281  and  _3282
REMARK  954  A    between atoms: _3281  and  _3284
REMARK  955  A    between atoms: _3284  and  _3285
REMARK  956  A    between atoms: _3284  and  _3286
REMARK  957  A    between atoms: _3296  and  _3297
REMARK  958  A    between atoms: _3297  and  _3298
REMARK  959  A    between atoms: _3297  and  _3300
REMARK  960  A    between atoms: _3300  and  _3301
REMARK  961  A    between atoms: _3301  and  _3302
REMARK                            x       y       z     vdW  Elec       q    Type
REMARK                         _______ _______ _______ _____ _____    ______ ____
ROOT
ATOM      1  H   UNK     1      11.153  32.667  16.895  0.00  0.00    +0.000 HD
ENDROOT
TORSDOF 0
REMARK  Name = /Users/mlugowska/PhD/ML_residence_time_prediction/protein_files/5J20_protein.pdb
REMARK  961 active torsions:
REMARK  status: ('A' for Active; 'I' for Inactive)
REMARK    1  A    between atoms: _2  and  _3
REMARK    2  A    between atoms: _2  and  _5
REMARK    3  A    between atoms: _10  and  _11
REMARK    4  A    between atoms: _11  and  _12
REMARK    5  A    between atoms: _11  and  _14
REMARK    6  A    between atoms: _14  and  _15
REMARK    7  A    between atoms: _14  and  _16
REMARK    8  A    between atoms: _26  and  _27
REMARK    9  A    between atoms: _27  and  _28
REMARK   10  A    between atoms: _27  and  _30
REMARK   11  A    between atoms: _30  and  _31
REMARK   12  A    between atoms: _31  and  _32
REMARK   13  A    between atoms: _41  and  _42
REMARK   14  A    between atoms: _42  and  _43
REMARK   15  A    between atoms: _42  and  _45
REMARK   16  A    between atoms: _45  and  _46
REMARK   17  A    between atoms: _45  and  _47
REMARK   18  A    between atoms: _55  and  _56
REMARK   19  A    between atoms: _56  and  _57
REMARK   20  A    between atoms: _56  and  _59
REMARK   21  A    between atoms: _59  and  _60
REMARK   22  A    between atoms: _75  and  _76
REMARK   23  A    between atoms: _76  and  _77
REMARK   24  A    between atoms: _76  and  _79
REMARK   25  A    between atoms: _85  and  _86
REMARK   26  A    between atoms: _86  and  _87
REMARK   27  A    between atoms: _86  and  _89
REMARK   28  A    between atoms: _89  and  _90
REMARK   29  A    between atoms: _105  and  _106
REMARK   30  A    between atoms: _106  and  _107
REMARK   31  A    between atoms: _106  and  _109
REMARK   32  A    between atoms: _109  and  _110
REMARK   33  A    between atoms: _110  and  _111
REMARK   34  A    between atoms: _122  and  _123
REMARK   35  A    between atoms: _123  and  _124
REMARK   36  A    between atoms: _123  and  _126
REMARK   37  A    between atoms: _132  and  _133
REMARK   38  A    between atoms: _133  and  _134
REMARK   39  A    between atoms: _133  and  _136
REMARK   40  A    between atoms: _136  and  _137
REMARK   41  A    between atoms: _137  and  _138
REMARK   42  A    between atoms: _147  and  _148
REMARK   43  A    between atoms: _148  and  _149
REMARK   44  A    between atoms: _148  and  _151
REMARK   45  A    between atoms: _151  and  _152
REMARK   46  A    between atoms: _151  and  _153
REMARK   47  A    between atoms: _152  and  _154
REMARK   48  A    between atoms: _166  and  _167
REMARK   49  A    between atoms: _167  and  _168
REMARK   50  A    between atoms: _167  and  _170
REMARK   51  A    between atoms: _176  and  _177
REMARK   52  A    between atoms: _177  and  _178
REMARK   53  A    between atoms: _177  and  _180
REMARK   54  A    between atoms: _180  and  _181
REMARK   55  A    between atoms: _181  and  _182
REMARK   56  A    between atoms: _193  and  _194
REMARK   57  A    between atoms: _194  and  _195
REMARK   58  A    between atoms: _194  and  _197
REMARK   59  A    between atoms: _197  and  _198
REMARK   60  A    between atoms: _198  and  _199
REMARK   61  A    between atoms: _198  and  _200
REMARK   62  A    between atoms: _212  and  _213
REMARK   63  A    between atoms: _213  and  _214
REMARK   64  A    between atoms: _213  and  _216
REMARK   65  A    between atoms: _216  and  _217
REMARK   66  A    between atoms: _217  and  _218
REMARK   67  A    between atoms: _218  and  _219
REMARK   68  A    between atoms: _229  and  _230
REMARK   69  A    between atoms: _230  and  _231
REMARK   70  A    between atoms: _230  and  _233
REMARK   71  A    between atoms: _233  and  _234
REMARK   72  A    between atoms: _240  and  _241
REMARK   73  A    between atoms: _241  and  _242
REMARK   74  A    between atoms: _241  and  _244
REMARK   75  A    between atoms: _244  and  _245
REMARK   76  A    between atoms: _245  and  _246
REMARK   77  A    between atoms: _245  and  _247
REMARK   78  A    between atoms: _259  and  _260
REMARK   79  A    between atoms: _260  and  _261
REMARK   80  A    between atoms: _260  and  _263
REMARK   81  A    between atoms: _263  and  _264
REMARK   82  A    between atoms: _263  and  _265
REMARK   83  A    between atoms: _264  and  _266
REMARK   84  A    between atoms: _278  and  _279
REMARK   85  A    between atoms: _279  and  _280
REMARK   86  A    between atoms: _279  and  _282
REMARK   87  A    between atoms: _282  and  _283
REMARK   88  A    between atoms: _282  and  _284
REMARK   89  A    between atoms: _283  and  _285
REMARK   90  A    between atoms: _297  and  _298
REMARK   91  A    between atoms: _298  and  _299
REMARK   92  A    between atoms: _298  and  _301
REMARK   93  A    between atoms: _301  and  _302
REMARK   94  A    between atoms: _311  and  _312
REMARK   95  A    between atoms: _312  and  _313
REMARK   96  A    between atoms: _312  and  _315
REMARK   97  A    between atoms: _315  and  _316
REMARK   98  A    between atoms: _315  and  _317
REMARK   99  A    between atoms: _325  and  _326
REMARK  100  A    between atoms: _326  and  _327
REMARK  101  A    between atoms: _326  and  _329
REMARK  102  A    between atoms: _329  and  _330
REMARK  103  A    between atoms: _345  and  _346
REMARK  104  A    between atoms: _346  and  _347
REMARK  105  A    between atoms: _346  and  _349
REMARK  106  A    between atoms: _349  and  _350
REMARK  107  A    between atoms: _355  and  _356
REMARK  108  A    between atoms: _366  and  _367
REMARK  109  A    between atoms: _367  and  _368
REMARK  110  A    between atoms: _367  and  _370
REMARK  111  A    between atoms: _370  and  _371
REMARK  112  A    between atoms: _377  and  _378
REMARK  113  A    between atoms: _378  and  _379
REMARK  114  A    between atoms: _378  and  _381
REMARK  115  A    between atoms: _381  and  _382
REMARK  116  A    between atoms: _391  and  _392
REMARK  117  A    between atoms: _392  and  _393
REMARK  118  A    between atoms: _392  and  _395
REMARK  119  A    between atoms: _395  and  _396
REMARK  120  A    between atoms: _396  and  _397
REMARK  121  A    between atoms: _397  and  _398
REMARK  122  A    between atoms: _398  and  _399
REMARK  123  A    between atoms: _413  and  _414
REMARK  124  A    between atoms: _414  and  _415
REMARK  125  A    between atoms: _414  and  _417
REMARK  126  A    between atoms: _417  and  _418
REMARK  127  A    between atoms: _418  and  _419
REMARK  128  A    between atoms: _428  and  _429
REMARK  129  A    between atoms: _429  and  _430
REMARK  130  A    between atoms: _429  and  _432
REMARK  131  A    between atoms: _432  and  _433
REMARK  132  A    between atoms: _432  and  _434
REMARK  133  A    between atoms: _433  and  _435
REMARK  134  A    between atoms: _447  and  _448
REMARK  135  A    between atoms: _448  and  _449
REMARK  136  A    between atoms: _448  and  _451
REMARK  137  A    between atoms: _451  and  _452
REMARK  138  A    between atoms: _467  and  _468
REMARK  139  A    between atoms: _468  and  _469
REMARK  140  A    between atoms: _468  and  _471
REMARK  141  A    between atoms: _471  and  _472
REMARK  142  A    between atoms: _472  and  _473
REMARK  143  A    between atoms: _472  and  _474
REMARK  144  A    between atoms: _486  and  _487
REMARK  145  A    between atoms: _487  and  _488
REMARK  146  A    between atoms: _487  and  _490
REMARK  147  A    between atoms: _490  and  _491
REMARK  148  A    between atoms: _491  and  _492
REMARK  149  A    between atoms: _492  and  _493
REMARK  150  A    between atoms: _510  and  _511
REMARK  151  A    between atoms: _511  and  _512
REMARK  152  A    between atoms: _511  and  _514
REMARK  153  A    between atoms: _514  and  _515
REMARK  154  A    between atoms: _515  and  _516
REMARK  155  A    between atoms: _525  and  _526
REMARK  156  A    between atoms: _526  and  _527
REMARK  157  A    between atoms: _526  and  _529
REMARK  158  A    between atoms: _529  and  _530
REMARK  159  A    between atoms: _530  and  _531
REMARK  160  A    between atoms: _530  and  _532
REMARK  161  A    between atoms: _544  and  _545
REMARK  162  A    between atoms: _545  and  _546
REMARK  163  A    between atoms: _545  and  _548
REMARK  164  A    between atoms: _548  and  _549
REMARK  165  A    between atoms: _548  and  _550
REMARK  166  A    between atoms: _549  and  _551
REMARK  167  A    between atoms: _563  and  _564
REMARK  168  A    between atoms: _564  and  _565
REMARK  169  A    between atoms: _564  and  _567
REMARK  170  A    between atoms: _567  and  _568
REMARK  171  A    between atoms: _574  and  _575
REMARK  172  A    between atoms: _575  and  _576
REMARK  173  A    between atoms: _575  and  _578
REMARK  174  A    between atoms: _578  and  _579
REMARK  175  A    between atoms: _588  and  _589
REMARK  176  A    between atoms: _589  and  _590
REMARK  177  A    between atoms: _589  and  _592
REMARK  178  A    between atoms: _592  and  _593
REMARK  179  A    between atoms: _599  and  _600
REMARK  180  A    between atoms: _600  and  _601
REMARK  181  A    between atoms: _600  and  _603
REMARK  182  A    between atoms: _603  and  _604
REMARK  183  A    between atoms: _610  and  _611
REMARK  184  A    between atoms: _611  and  _612
REMARK  185  A    between atoms: _611  and  _614
REMARK  186  A    between atoms: _614  and  _615
REMARK  187  A    between atoms: _622  and  _623
REMARK  188  A    between atoms: _623  and  _624
REMARK  189  A    between atoms: _623  and  _626
REMARK  190  A    between atoms: _632  and  _633
REMARK  191  A    between atoms: _633  and  _634
REMARK  192  A    between atoms: _633  and  _636
REMARK  193  A    between atoms: _636  and  _637
REMARK  194  A    between atoms: _637  and  _638
REMARK  195  A    between atoms: _637  and  _639
REMARK  196  A    between atoms: _651  and  _652
REMARK  197  A    between atoms: _652  and  _653
REMARK  198  A    between atoms: _652  and  _655
REMARK  199  A    between atoms: _655  and  _656
REMARK  200  A    between atoms: _663  and  _664
REMARK  201  A    between atoms: _664  and  _665
REMARK  202  A    between atoms: _664  and  _667
REMARK  203  A    between atoms: _667  and  _668
REMARK  204  A    between atoms: _668  and  _669
REMARK  205  A    between atoms: _669  and  _670
REMARK  206  A    between atoms: _670  and  _671
REMARK  207  A    between atoms: _685  and  _686
REMARK  208  A    between atoms: _686  and  _687
REMARK  209  A    between atoms: _686  and  _689
REMARK  210  A    between atoms: _689  and  _690
REMARK  211  A    between atoms: _689  and  _691
REMARK  212  A    between atoms: _690  and  _692
REMARK  213  A    between atoms: _704  and  _705
REMARK  214  A    between atoms: _705  and  _706
REMARK  215  A    between atoms: _705  and  _708
REMARK  216  A    between atoms: _708  and  _709
REMARK  217  A    between atoms: _709  and  _710
REMARK  218  A    between atoms: _710  and  _711
REMARK  219  A    between atoms: _728  and  _729
REMARK  220  A    between atoms: _729  and  _730
REMARK  221  A    between atoms: _729  and  _732
REMARK  222  A    between atoms: _732  and  _733
REMARK  223  A    between atoms: _738  and  _739
REMARK  224  A    between atoms: _749  and  _750
REMARK  225  A    between atoms: _750  and  _751
REMARK  226  A    between atoms: _750  and  _753
REMARK  227  A    between atoms: _753  and  _754
REMARK  228  A    between atoms: _754  and  _755
REMARK  229  A    between atoms: _764  and  _765
REMARK  230  A    between atoms: _765  and  _766
REMARK  231  A    between atoms: _765  and  _768
REMARK  232  A    between atoms: _772  and  _773
REMARK  233  A    between atoms: _773  and  _774
REMARK  234  A    between atoms: _773  and  _776
REMARK  235  A    between atoms: _776  and  _777
REMARK  236  A    between atoms: _777  and  _778
REMARK  237  A    between atoms: _777  and  _779
REMARK  238  A    between atoms: _791  and  _792
REMARK  239  A    between atoms: _792  and  _793
REMARK  240  A    between atoms: _792  and  _795
REMARK  241  A    between atoms: _795  and  _796
REMARK  242  A    between atoms: _795  and  _797
REMARK  243  A    between atoms: _805  and  _806
REMARK  244  A    between atoms: _806  and  _807
REMARK  245  A    between atoms: _806  and  _809
REMARK  246  A    between atoms: _809  and  _810
REMARK  247  A    between atoms: _818  and  _819
REMARK  248  A    between atoms: _831  and  _832
REMARK  249  A    between atoms: _832  and  _833
REMARK  250  A    between atoms: _832  and  _835
REMARK  251  A    between atoms: _835  and  _836
REMARK  252  A    between atoms: _842  and  _843
REMARK  253  A    between atoms: _843  and  _844
REMARK  254  A    between atoms: _843  and  _846
REMARK  255  A    between atoms: _846  and  _847
REMARK  256  A    between atoms: _847  and  _848
REMARK  257  A    between atoms: _848  and  _849
REMARK  258  A    between atoms: _849  and  _850
REMARK  259  A    between atoms: _864  and  _865
REMARK  260  A    between atoms: _865  and  _866
REMARK  261  A    between atoms: _865  and  _868
REMARK  262  A    between atoms: _868  and  _869
REMARK  263  A    between atoms: _869  and  _870
REMARK  264  A    between atoms: _869  and  _871
REMARK  265  A    between atoms: _883  and  _884
REMARK  266  A    between atoms: _884  and  _885
REMARK  267  A    between atoms: _884  and  _887
REMARK  268  A    between atoms: _887  and  _888
REMARK  269  A    between atoms: _895  and  _896
REMARK  270  A    between atoms: _896  and  _897
REMARK  271  A    between atoms: _896  and  _899
REMARK  272  A    between atoms: _899  and  _900
REMARK  273  A    between atoms: _906  and  _907
REMARK  274  A    between atoms: _907  and  _908
REMARK  275  A    between atoms: _913  and  _914
REMARK  276  A    between atoms: _914  and  _915
REMARK  277  A    between atoms: _914  and  _917
REMARK  278  A    between atoms: _917  and  _918
REMARK  279  A    between atoms: _918  and  _919
REMARK  280  A    between atoms: _919  and  _920
REMARK  281  A    between atoms: _920  and  _921
REMARK  282  A    between atoms: _935  and  _936
REMARK  283  A    between atoms: _936  and  _937
REMARK  284  A    between atoms: _936  and  _939
REMARK  285  A    between atoms: _939  and  _940
REMARK  286  A    between atoms: _940  and  _941
REMARK  287  A    between atoms: _950  and  _951
REMARK  288  A    between atoms: _951  and  _952
REMARK  289  A    between atoms: _951  and  _954
REMARK  290  A    between atoms: _954  and  _955
REMARK  291  A    between atoms: _955  and  _956
REMARK  292  A    between atoms: _955  and  _957
REMARK  293  A    between atoms: _969  and  _970
REMARK  294  A    between atoms: _970  and  _971
REMARK  295  A    between atoms: _970  and  _973
REMARK  296  A    between atoms: _973  and  _974
REMARK  297  A    between atoms: _986  and  _987
REMARK  298  A    between atoms: _987  and  _988
REMARK  299  A    between atoms: _987  and  _990
REMARK  300  A    between atoms: _990  and  _991
REMARK  301  A    between atoms: _990  and  _992
REMARK  302  A    between atoms: _991  and  _993
REMARK  303  A    between atoms: _1005  and  _1006
REMARK  304  A    between atoms: _1006  and  _1007
REMARK  305  A    between atoms: _1006  and  _1009
REMARK  306  A    between atoms: _1009  and  _1010
REMARK  307  A    between atoms: _1019  and  _1020
REMARK  308  A    between atoms: _1020  and  _1021
REMARK  309  A    between atoms: _1020  and  _1023
REMARK  310  A    between atoms: _1023  and  _1024
REMARK  311  A    between atoms: _1024  and  _1025
REMARK  312  A    between atoms: _1024  and  _1026
REMARK  313  A    between atoms: _1038  and  _1039
REMARK  314  A    between atoms: _1039  and  _1040
REMARK  315  A    between atoms: _1039  and  _1042
REMARK  316  A    between atoms: _1042  and  _1043
REMARK  317  A    between atoms: _1042  and  _1044
REMARK  318  A    between atoms: _1043  and  _1045
REMARK  319  A    between atoms: _1058  and  _1059
REMARK  320  A    between atoms: _1071  and  _1072
REMARK  321  A    between atoms: _1072  and  _1073
REMARK  322  A    between atoms: _1072  and  _1075
REMARK  323  A    between atoms: _1075  and  _1076
REMARK  324  A    between atoms: _1085  and  _1086
REMARK  325  A    between atoms: _1086  and  _1087
REMARK  326  A    between atoms: _1086  and  _1089
REMARK  327  A    between atoms: _1089  and  _1090
REMARK  328  A    between atoms: _1090  and  _1091
REMARK  329  A    between atoms: _1091  and  _1092
REMARK  330  A    between atoms: _1092  and  _1093
REMARK  331  A    between atoms: _1107  and  _1108
REMARK  332  A    between atoms: _1108  and  _1109
REMARK  333  A    between atoms: _1108  and  _1111
REMARK  334  A    between atoms: _1111  and  _1112
REMARK  335  A    between atoms: _1112  and  _1113
REMARK  336  A    between atoms: _1124  and  _1125
REMARK  337  A    between atoms: _1125  and  _1126
REMARK  338  A    between atoms: _1125  and  _1128
REMARK  339  A    between atoms: _1128  and  _1129
REMARK  340  A    between atoms: _1136  and  _1137
REMARK  341  A    between atoms: _1137  and  _1138
REMARK  342  A    between atoms: _1137  and  _1140
REMARK  343  A    between atoms: _1140  and  _1141
REMARK  344  A    between atoms: _1141  and  _1142
REMARK  345  A    between atoms: _1142  and  _1143
REMARK  346  A    between atoms: _1160  and  _1161
REMARK  347  A    between atoms: _1161  and  _1162
REMARK  348  A    between atoms: _1161  and  _1164
REMARK  349  A    between atoms: _1164  and  _1165
REMARK  350  A    between atoms: _1164  and  _1166
REMARK  351  A    between atoms: _1174  and  _1175
REMARK  352  A    between atoms: _1175  and  _1176
REMARK  353  A    between atoms: _1175  and  _1178
REMARK  354  A    between atoms: _1178  and  _1179
REMARK  355  A    between atoms: _1179  and  _1180
REMARK  356  A    between atoms: _1179  and  _1181
REMARK  357  A    between atoms: _1193  and  _1194
REMARK  358  A    between atoms: _1194  and  _1195
REMARK  359  A    between atoms: _1194  and  _1197
REMARK  360  A    between atoms: _1197  and  _1198
REMARK  361  A    between atoms: _1197  and  _1199
REMARK  362  A    between atoms: _1207  and  _1208
REMARK  363  A    between atoms: _1208  and  _1209
REMARK  364  A    between atoms: _1208  and  _1211
REMARK  365  A    between atoms: _1211  and  _1212
REMARK  366  A    between atoms: _1211  and  _1213
REMARK  367  A    between atoms: _1212  and  _1214
REMARK  368  A    between atoms: _1226  and  _1227
REMARK  369  A    between atoms: _1227  and  _1228
REMARK  370  A    between atoms: _1227  and  _1230
REMARK  371  A    between atoms: _1230  and  _1231
REMARK  372  A    between atoms: _1230  and  _1232
REMARK  373  A    between atoms: _1242  and  _1243
REMARK  374  A    between atoms: _1243  and  _1244
REMARK  375  A    between atoms: _1243  and  _1246
REMARK  376  A    between atoms: _1246  and  _1247
REMARK  377  A    between atoms: _1254  and  _1255
REMARK  378  A    between atoms: _1255  and  _1256
REMARK  379  A    between atoms: _1255  and  _1258
REMARK  380  A    between atoms: _1258  and  _1259
REMARK  381  A    between atoms: _1258  and  _1260
REMARK  382  A    between atoms: _1268  and  _1269
REMARK  383  A    between atoms: _1269  and  _1270
REMARK  384  A    between atoms: _1275  and  _1276
REMARK  385  A    between atoms: _1276  and  _1277
REMARK  386  A    between atoms: _1276  and  _1279
REMARK  387  A    between atoms: _1279  and  _1280
REMARK  388  A    between atoms: _1279  and  _1281
REMARK  389  A    between atoms: _1280  and  _1282
REMARK  390  A    between atoms: _1294  and  _1295
REMARK  391  A    between atoms: _1295  and  _1296
REMARK  392  A    between atoms: _1301  and  _1302
REMARK  393  A    between atoms: _1302  and  _1303
REMARK  394  A    between atoms: _1302  and  _1305
REMARK  395  A    between atoms: _1305  and  _1306
REMARK  396  A    between atoms: _1306  and  _1307
REMARK  397  A    between atoms: _1307  and  _1308
REMARK  398  A    between atoms: _1318  and  _1319
REMARK  399  A    between atoms: _1319  and  _1320
REMARK  400  A    between atoms: _1319  and  _1322
REMARK  401  A    between atoms: _1322  and  _1323
REMARK  402  A    between atoms: _1322  and  _1324
REMARK  403  A    between atoms: _1332  and  _1333
REMARK  404  A    between atoms: _1333  and  _1334
REMARK  405  A    between atoms: _1333  and  _1336
REMARK  406  A    between atoms: _1336  and  _1337
REMARK  407  A    between atoms: _1337  and  _1338
REMARK  408  A    between atoms: _1338  and  _1339
REMARK  409  A    between atoms: _1339  and  _1340
REMARK  410  A    between atoms: _1354  and  _1355
REMARK  411  A    between atoms: _1355  and  _1356
REMARK  412  A    between atoms: _1355  and  _1358
REMARK  413  A    between atoms: _1364  and  _1365
REMARK  414  A    between atoms: _1365  and  _1366
REMARK  415  A    between atoms: _1365  and  _1368
REMARK  416  A    between atoms: _1368  and  _1369
REMARK  417  A    between atoms: _1376  and  _1377
REMARK  418  A    between atoms: _1377  and  _1378
REMARK  419  A    between atoms: _1377  and  _1380
REMARK  420  A    between atoms: _1380  and  _1381
REMARK  421  A    between atoms: _1381  and  _1382
REMARK  422  A    between atoms: _1381  and  _1383
REMARK  423  A    between atoms: _1395  and  _1396
REMARK  424  A    between atoms: _1396  and  _1399
REMARK  425  A    between atoms: _1399  and  _1400
REMARK  426  A    between atoms: _1399  and  _1401
REMARK  427  A    between atoms: _1400  and  _1402
REMARK  428  A    between atoms: _1422  and  _1425
REMARK  429  A    between atoms: _1424  and  _1428
REMARK  430  A    between atoms: _1425  and  _1427
REMARK  431  A    between atoms: _1443  and  _1444
REMARK  432  A    between atoms: _1443  and  _1446
REMARK  433  A    between atoms: _1446  and  _1447
REMARK  434  A    between atoms: _1457  and  _1458
REMARK  435  A    between atoms: _1458  and  _1459
REMARK  436  A    between atoms: _1458  and  _1461
REMARK  437  A    between atoms: _1461  and  _1462
REMARK  438  A    between atoms: _1462  and  _1463
REMARK  439  A    between atoms: _1462  and  _1464
REMARK  440  A    between atoms: _1476  and  _1477
REMARK  441  A    between atoms: _1477  and  _1478
REMARK  442  A    between atoms: _1483  and  _1484
REMARK  443  A    between atoms: _1484  and  _1485
REMARK  444  A    between atoms: _1484  and  _1487
REMARK  445  A    between atoms: _1487  and  _1488
REMARK  446  A    between atoms: _1487  and  _1489
REMARK  447  A    between atoms: _1497  and  _1498
REMARK  448  A    between atoms: _1498  and  _1499
REMARK  449  A    between atoms: _1498  and  _1501
REMARK  450  A    between atoms: _1501  and  _1502
REMARK  451  A    between atoms: _1501  and  _1503
REMARK  452  A    between atoms: _1502  and  _1504
REMARK  453  A    between atoms: _1516  and  _1517
REMARK  454  A    between atoms: _1517  and  _1518
REMARK  455  A    between atoms: _1517  and  _1520
REMARK  456  A    between atoms: _1526  and  _1527
REMARK  457  A    between atoms: _1527  and  _1528
REMARK  458  A    between atoms: _1527  and  _1530
REMARK  459  A    between atoms: _1530  and  _1531
REMARK  460  A    between atoms: _1531  and  _1532
REMARK  461  A    between atoms: _1532  and  _1533
REMARK  462  A    between atoms: _1533  and  _1534
REMARK  463  A    between atoms: _1548  and  _1549
REMARK  464  A    between atoms: _1549  and  _1550
REMARK  465  A    between atoms: _1549  and  _1552
REMARK  466  A    between atoms: _1552  and  _1553
REMARK  467  A    between atoms: _1559  and  _1560
REMARK  468  A    between atoms: _1560  and  _1561
REMARK  469  A    between atoms: _1566  and  _1567
REMARK  470  A    between atoms: _1567  and  _1568
REMARK  471  A    between atoms: _1567  and  _1570
REMARK  472  A    between atoms: _1570  and  _1571
REMARK  473  A    between atoms: _1570  and  _1572
REMARK  474  A    between atoms: _1580  and  _1581
REMARK  475  A    between atoms: _1581  and  _1582
REMARK  476  A    between atoms: _1581  and  _1584
REMARK  477  A    between atoms: _1584  and  _1585
REMARK  478  A    between atoms: _1585  and  _1586
REMARK  479  A    between atoms: _1586  and  _1587
REMARK  480  A    between atoms: _1587  and  _1588
REMARK  481  A    between atoms: _1602  and  _1603
REMARK  482  A    between atoms: _1603  and  _1604
REMARK  483  A    between atoms: _1603  and  _1606
REMARK  484  A    between atoms: _1612  and  _1613
REMARK  485  A    between atoms: _1613  and  _1614
REMARK  486  A    between atoms: _1613  and  _1616
REMARK  487  A    between atoms: _1616  and  _1617
REMARK  488  A    between atoms: _1632  and  _1633
REMARK  489  A    between atoms: _1633  and  _1634
REMARK  490  A    between atoms: _1633  and  _1636
REMARK  491  A    between atoms: _1636  and  _1637
REMARK  492  A    between atoms: _1637  and  _1638
REMARK  493  A    between atoms: _1638  and  _1639
REMARK  494  A    between atoms: _1649  and  _1650
REMARK  495  A    between atoms: _1650  and  _1651
REMARK  496  A    between atoms: _1650  and  _1653
REMARK  497  A    between atoms: _1653  and  _1654
REMARK  498  A    between atoms: _1654  and  _1655
REMARK  499  A    between atoms: _1664  and  _1665
REMARK  500  A    between atoms: _1665  and  _1666
REMARK  501  A    between atoms: _1665  and  _1668
REMARK  502  A    between atoms: _1674  and  _1675
REMARK  503  A    between atoms: _1675  and  _1676
REMARK  504  A    between atoms: _1675  and  _1678
REMARK  505  A    between atoms: _1678  and  _1679
REMARK  506  A    between atoms: _1679  and  _1680
REMARK  507  A    between atoms: _1679  and  _1681
REMARK  508  A    between atoms: _1693  and  _1694
REMARK  509  A    between atoms: _1694  and  _1695
REMARK  510  A    between atoms: _1694  and  _1697
REMARK  511  A    between atoms: _1697  and  _1698
REMARK  512  A    between atoms: _1698  and  _1699
REMARK  513  A    between atoms: _1710  and  _1711
REMARK  514  A    between atoms: _1711  and  _1712
REMARK  515  A    between atoms: _1711  and  _1714
REMARK  516  A    between atoms: _1720  and  _1721
REMARK  517  A    between atoms: _1721  and  _1722
REMARK  518  A    between atoms: _1727  and  _1728
REMARK  519  A    between atoms: _1728  and  _1729
REMARK  520  A    between atoms: _1728  and  _1731
REMARK  521  A    between atoms: _1737  and  _1738
REMARK  522  A    between atoms: _1738  and  _1739
REMARK  523  A    between atoms: _1738  and  _1741
REMARK  524  A    between atoms: _1741  and  _1742
REMARK  525  A    between atoms: _1749  and  _1750
REMARK  526  A    between atoms: _1750  and  _1751
REMARK  527  A    between atoms: _1750  and  _1753
REMARK  528  A    between atoms: _1753  and  _1754
REMARK  529  A    between atoms: _1753  and  _1755
REMARK  530  A    between atoms: _1754  and  _1756
REMARK  531  A    between atoms: _1768  and  _1769
REMARK  532  A    between atoms: _1769  and  _1772
REMARK  533  A    between atoms: _1772  and  _1773
REMARK  534  A    between atoms: _1791  and  _1793
REMARK  535  A    between atoms: _1792  and  _1794
REMARK  536  A    between atoms: _1814  and  _1815
REMARK  537  A    between atoms: _1814  and  _1817
REMARK  538  A    between atoms: _1817  and  _1818
REMARK  539  A    between atoms: _1817  and  _1819
REMARK  540  A    between atoms: _1818  and  _1820
REMARK  541  A    between atoms: _1833  and  _1834
REMARK  542  A    between atoms: _1834  and  _1835
REMARK  543  A    between atoms: _1840  and  _1841
REMARK  544  A    between atoms: _1841  and  _1842
REMARK  545  A    between atoms: _1841  and  _1844
REMARK  546  A    between atoms: _1844  and  _1845
REMARK  547  A    between atoms: _1845  and  _1846
REMARK  548  A    between atoms: _1857  and  _1858
REMARK  549  A    between atoms: _1858  and  _1859
REMARK  550  A    between atoms: _1858  and  _1861
REMARK  551  A    between atoms: _1861  and  _1862
REMARK  552  A    between atoms: _1877  and  _1878
REMARK  553  A    between atoms: _1878  and  _1879
REMARK  554  A    between atoms: _1884  and  _1885
REMARK  555  A    between atoms: _1885  and  _1886
REMARK  556  A    between atoms: _1885  and  _1888
REMARK  557  A    between atoms: _1888  and  _1889
REMARK  558  A    between atoms: _1888  and  _1890
REMARK  559  A    between atoms: _1900  and  _1901
REMARK  560  A    between atoms: _1901  and  _1902
REMARK  561  A    between atoms: _1907  and  _1908
REMARK  562  A    between atoms: _1908  and  _1909
REMARK  563  A    between atoms: _1908  and  _1911
REMARK  564  A    between atoms: _1911  and  _1912
REMARK  565  A    between atoms: _1927  and  _1928
REMARK  566  A    between atoms: _1928  and  _1929
REMARK  567  A    between atoms: _1928  and  _1931
REMARK  568  A    between atoms: _1931  and  _1932
REMARK  569  A    between atoms: _1937  and  _1938
REMARK  570  A    between atoms: _1948  and  _1949
REMARK  571  A    between atoms: _1949  and  _1950
REMARK  572  A    between atoms: _1949  and  _1952
REMARK  573  A    between atoms: _1952  and  _1953
REMARK  574  A    between atoms: _1959  and  _1960
REMARK  575  A    between atoms: _1960  and  _1961
REMARK  576  A    between atoms: _1960  and  _1963
REMARK  577  A    between atoms: _1969  and  _1970
REMARK  578  A    between atoms: _1970  and  _1971
REMARK  579  A    between atoms: _1970  and  _1973
REMARK  580  A    between atoms: _1973  and  _1974
REMARK  581  A    between atoms: _1979  and  _1980
REMARK  582  A    between atoms: _1990  and  _1991
REMARK  583  A    between atoms: _1991  and  _1992
REMARK  584  A    between atoms: _1991  and  _1994
REMARK  585  A    between atoms: _1994  and  _1995
REMARK  586  A    between atoms: _1995  and  _1996
REMARK  587  A    between atoms: _1995  and  _1997
REMARK  588  A    between atoms: _2009  and  _2010
REMARK  589  A    between atoms: _2010  and  _2011
REMARK  590  A    between atoms: _2010  and  _2013
REMARK  591  A    between atoms: _2013  and  _2014
REMARK  592  A    between atoms: _2013  and  _2015
REMARK  593  A    between atoms: _2025  and  _2026
REMARK  594  A    between atoms: _2026  and  _2027
REMARK  595  A    between atoms: _2026  and  _2029
REMARK  596  A    between atoms: _2035  and  _2036
REMARK  597  A    between atoms: _2036  and  _2037
REMARK  598  A    between atoms: _2036  and  _2039
REMARK  599  A    between atoms: _2039  and  _2040
REMARK  600  A    between atoms: _2040  and  _2041
REMARK  601  A    between atoms: _2050  and  _2051
REMARK  602  A    between atoms: _2051  and  _2052
REMARK  603  A    between atoms: _2051  and  _2054
REMARK  604  A    between atoms: _2054  and  _2055
REMARK  605  A    between atoms: _2055  and  _2056
REMARK  606  A    between atoms: _2056  and  _2057
REMARK  607  A    between atoms: _2057  and  _2058
REMARK  608  A    between atoms: _2072  and  _2073
REMARK  609  A    between atoms: _2073  and  _2074
REMARK  610  A    between atoms: _2073  and  _2076
REMARK  611  A    between atoms: _2076  and  _2077
REMARK  612  A    between atoms: _2076  and  _2078
REMARK  613  A    between atoms: _2088  and  _2089
REMARK  614  A    between atoms: _2089  and  _2090
REMARK  615  A    between atoms: _2089  and  _2092
REMARK  616  A    between atoms: _2092  and  _2093
REMARK  617  A    between atoms: _2092  and  _2094
REMARK  618  A    between atoms: _2102  and  _2103
REMARK  619  A    between atoms: _2103  and  _2104
REMARK  620  A    between atoms: _2103  and  _2106
REMARK  621  A    between atoms: _2106  and  _2107
REMARK  622  A    between atoms: _2106  and  _2108
REMARK  623  A    between atoms: _2118  and  _2119
REMARK  624  A    between atoms: _2119  and  _2120
REMARK  625  A    between atoms: _2119  and  _2122
REMARK  626  A    between atoms: _2122  and  _2123
REMARK  627  A    between atoms: _2122  and  _2124
REMARK  628  A    between atoms: _2123  and  _2125
REMARK  629  A    between atoms: _2137  and  _2138
REMARK  630  A    between atoms: _2138  and  _2139
REMARK  631  A    between atoms: _2138  and  _2141
REMARK  632  A    between atoms: _2141  and  _2142
REMARK  633  A    between atoms: _2141  and  _2143
REMARK  634  A    between atoms: _2151  and  _2152
REMARK  635  A    between atoms: _2152  and  _2153
REMARK  636  A    between atoms: _2152  and  _2155
REMARK  637  A    between atoms: _2155  and  _2156
REMARK  638  A    between atoms: _2156  and  _2157
REMARK  639  A    between atoms: _2157  and  _2158
REMARK  640  A    between atoms: _2158  and  _2159
REMARK  641  A    between atoms: _2173  and  _2174
REMARK  642  A    between atoms: _2174  and  _2175
REMARK  643  A    between atoms: _2174  and  _2177
REMARK  644  A    between atoms: _2177  and  _2178
REMARK  645  A    between atoms: _2190  and  _2191
REMARK  646  A    between atoms: _2191  and  _2192
REMARK  647  A    between atoms: _2191  and  _2194
REMARK  648  A    between atoms: _2194  and  _2195
REMARK  649  A    between atoms: _2204  and  _2205
REMARK  650  A    between atoms: _2205  and  _2206
REMARK  651  A    between atoms: _2205  and  _2208
REMARK  652  A    between atoms: _2208  and  _2209
REMARK  653  A    between atoms: _2216  and  _2217
REMARK  654  A    between atoms: _2217  and  _2218
REMARK  655  A    between atoms: _2217  and  _2220
REMARK  656  A    between atoms: _2220  and  _2221
REMARK  657  A    between atoms: _2228  and  _2229
REMARK  658  A    between atoms: _2229  and  _2230
REMARK  659  A    between atoms: _2229  and  _2232
REMARK  660  A    between atoms: _2232  and  _2233
REMARK  661  A    between atoms: _2233  and  _2234
REMARK  662  A    between atoms: _2243  and  _2244
REMARK  663  A    between atoms: _2244  and  _2245
REMARK  664  A    between atoms: _2244  and  _2247
REMARK  665  A    between atoms: _2247  and  _2248
REMARK  666  A    between atoms: _2248  and  _2249
REMARK  667  A    between atoms: _2260  and  _2261
REMARK  668  A    between atoms: _2261  and  _2262
REMARK  669  A    between atoms: _2261  and  _2264
REMARK  670  A    between atoms: _2264  and  _2265
REMARK  671  A    between atoms: _2270  and  _2271
REMARK  672  A    between atoms: _2281  and  _2282
REMARK  673  A    between atoms: _2282  and  _2283
REMARK  674  A    between atoms: _2282  and  _2285
REMARK  675  A    between atoms: _2291  and  _2292
REMARK  676  A    between atoms: _2292  and  _2293
REMARK  677  A    between atoms: _2292  and  _2295
REMARK  678  A    between atoms: _2295  and  _2296
REMARK  679  A    between atoms: _2315  and  _2316
REMARK  680  A    between atoms: _2316  and  _2317
REMARK  681  A    between atoms: _2316  and  _2319
REMARK  682  A    between atoms: _2319  and  _2320
REMARK  683  A    between atoms: _2320  and  _2321
REMARK  684  A    between atoms: _2330  and  _2331
REMARK  685  A    between atoms: _2331  and  _2332
REMARK  686  A    between atoms: _2331  and  _2334
REMARK  687  A    between atoms: _2334  and  _2335
REMARK  688  A    between atoms: _2341  and  _2342
REMARK  689  A    between atoms: _2342  and  _2343
REMARK  690  A    between atoms: _2342  and  _2345
REMARK  691  A    between atoms: _2345  and  _2346
REMARK  692  A    between atoms: _2352  and  _2353
REMARK  693  A    between atoms: _2353  and  _2354
REMARK  694  A    between atoms: _2353  and  _2356
REMARK  695  A    between atoms: _2362  and  _2363
REMARK  696  A    between atoms: _2363  and  _2364
REMARK  697  A    between atoms: _2369  and  _2370
REMARK  698  A    between atoms: _2370  and  _2371
REMARK  699  A    between atoms: _2376  and  _2377
REMARK  700  A    between atoms: _2377  and  _2378
REMARK  701  A    between atoms: _2377  and  _2380
REMARK  702  A    between atoms: _2380  and  _2381
REMARK  703  A    between atoms: _2387  and  _2388
REMARK  704  A    between atoms: _2388  and  _2389
REMARK  705  A    between atoms: _2388  and  _2391
REMARK  706  A    between atoms: _2391  and  _2392
REMARK  707  A    between atoms: _2407  and  _2408
REMARK  708  A    between atoms: _2408  and  _2409
REMARK  709  A    between atoms: _2408  and  _2411
REMARK  710  A    between atoms: _2411  and  _2412
REMARK  711  A    between atoms: _2411  and  _2413
REMARK  712  A    between atoms: _2421  and  _2422
REMARK  713  A    between atoms: _2422  and  _2423
REMARK  714  A    between atoms: _2422  and  _2425
REMARK  715  A    between atoms: _2425  and  _2426
REMARK  716  A    between atoms: _2425  and  _2427
REMARK  717  A    between atoms: _2437  and  _2438
REMARK  718  A    between atoms: _2438  and  _2439
REMARK  719  A    between atoms: _2438  and  _2441
REMARK  720  A    between atoms: _2441  and  _2442
REMARK  721  A    between atoms: _2442  and  _2443
REMARK  722  A    between atoms: _2443  and  _2444
REMARK  723  A    between atoms: _2461  and  _2462
REMARK  724  A    between atoms: _2462  and  _2463
REMARK  725  A    between atoms: _2462  and  _2465
REMARK  726  A    between atoms: _2465  and  _2466
REMARK  727  A    between atoms: _2465  and  _2467
REMARK  728  A    between atoms: _2475  and  _2476
REMARK  729  A    between atoms: _2476  and  _2477
REMARK  730  A    between atoms: _2476  and  _2479
REMARK  731  A    between atoms: _2479  and  _2480
REMARK  732  A    between atoms: _2487  and  _2488
REMARK  733  A    between atoms: _2488  and  _2489
REMARK  734  A    between atoms: _2488  and  _2491
REMARK  735  A    between atoms: _2491  and  _2492
REMARK  736  A    between atoms: _2491  and  _2493
REMARK  737  A    between atoms: _2501  and  _2502
REMARK  738  A    between atoms: _2502  and  _2503
REMARK  739  A    between atoms: _2508  and  _2509
REMARK  740  A    between atoms: _2509  and  _2510
REMARK  741  A    between atoms: _2509  and  _2512
REMARK  742  A    between atoms: _2512  and  _2513
REMARK  743  A    between atoms: _2513  and  _2514
REMARK  744  A    between atoms: _2524  and  _2525
REMARK  745  A    between atoms: _2537  and  _2538
REMARK  746  A    between atoms: _2538  and  _2539
REMARK  747  A    between atoms: _2538  and  _2541
REMARK  748  A    between atoms: _2541  and  _2542
REMARK  749  A    between atoms: _2542  and  _2543
REMARK  750  A    between atoms: _2543  and  _2544
REMARK  751  A    between atoms: _2554  and  _2555
REMARK  752  A    between atoms: _2555  and  _2556
REMARK  753  A    between atoms: _2561  and  _2562
REMARK  754  A    between atoms: _2562  and  _2563
REMARK  755  A    between atoms: _2562  and  _2565
REMARK  756  A    between atoms: _2565  and  _2566
REMARK  757  A    between atoms: _2566  and  _2567
REMARK  758  A    between atoms: _2567  and  _2568
REMARK  759  A    between atoms: _2585  and  _2586
REMARK  760  A    between atoms: _2586  and  _2587
REMARK  761  A    between atoms: _2592  and  _2593
REMARK  762  A    between atoms: _2593  and  _2594
REMARK  763  A    between atoms: _2593  and  _2596
REMARK  764  A    between atoms: _2596  and  _2597
REMARK  765  A    between atoms: _2596  and  _2598
REMARK  766  A    between atoms: _2606  and  _2607
REMARK  767  A    between atoms: _2607  and  _2608
REMARK  768  A    between atoms: _2607  and  _2610
REMARK  769  A    between atoms: _2610  and  _2611
REMARK  770  A    between atoms: _2611  and  _2612
REMARK  771  A    between atoms: _2612  and  _2613
REMARK  772  A    between atoms: _2613  and  _2614
REMARK  773  A    between atoms: _2628  and  _2629
REMARK  774  A    between atoms: _2629  and  _2630
REMARK  775  A    between atoms: _2629  and  _2632
REMARK  776  A    between atoms: _2632  and  _2633
REMARK  777  A    between atoms: _2632  and  _2634
REMARK  778  A    between atoms: _2644  and  _2645
REMARK  779  A    between atoms: _2645  and  _2646
REMARK  780  A    between atoms: _2645  and  _2648
REMARK  781  A    between atoms: _2648  and  _2649
REMARK  782  A    between atoms: _2648  and  _2650
REMARK  783  A    between atoms: _2649  and  _2651
REMARK  784  A    between atoms: _2663  and  _2664
REMARK  785  A    between atoms: _2664  and  _2665
REMARK  786  A    between atoms: _2664  and  _2667
REMARK  787  A    between atoms: _2667  and  _2668
REMARK  788  A    between atoms: _2668  and  _2669
REMARK  789  A    between atoms: _2668  and  _2670
REMARK  790  A    between atoms: _2682  and  _2683
REMARK  791  A    between atoms: _2683  and  _2684
REMARK  792  A    between atoms: _2683  and  _2686
REMARK  793  A    between atoms: _2686  and  _2687
REMARK  794  A    between atoms: _2699  and  _2700
REMARK  795  A    between atoms: _2700  and  _2701
REMARK  796  A    between atoms: _2700  and  _2703
REMARK  797  A    between atoms: _2703  and  _2704
REMARK  798  A    between atoms: _2704  and  _2705
REMARK  799  A    between atoms: _2704  and  _2706
REMARK  800  A    between atoms: _2718  and  _2719
REMARK  801  A    between atoms: _2719  and  _2720
REMARK  802  A    between atoms: _2719  and  _2722
REMARK  803  A    between atoms: _2722  and  _2723
REMARK  804  A    between atoms: _2723  and  _2724
REMARK  805  A    between atoms: _2724  and  _2725
REMARK  806  A    between atoms: _2725  and  _2726
REMARK  807  A    between atoms: _2740  and  _2741
REMARK  808  A    between atoms: _2741  and  _2742
REMARK  809  A    between atoms: _2741  and  _2744
REMARK  810  A    between atoms: _2744  and  _2745
REMARK  811  A    between atoms: _2745  and  _2746
REMARK  812  A    between atoms: _2755  and  _2756
REMARK  813  A    between atoms: _2756  and  _2757
REMARK  814  A    between atoms: _2756  and  _2759
REMARK  815  A    between atoms: _2759  and  _2760
REMARK  816  A    between atoms: _2767  and  _2768
REMARK  817  A    between atoms: _2768  and  _2769
REMARK  818  A    between atoms: _2768  and  _2771
REMARK  819  A    between atoms: _2771  and  _2772
REMARK  820  A    between atoms: _2772  and  _2773
REMARK  821  A    between atoms: _2784  and  _2785
REMARK  822  A    between atoms: _2785  and  _2786
REMARK  823  A    between atoms: _2785  and  _2788
REMARK  824  A    between atoms: _2788  and  _2789
REMARK  825  A    between atoms: _2788  and  _2790
REMARK  826  A    between atoms: _2798  and  _2799
REMARK  827  A    between atoms: _2799  and  _2800
REMARK  828  A    between atoms: _2799  and  _2802
REMARK  829  A    between atoms: _2802  and  _2803
REMARK  830  A    between atoms: _2803  and  _2804
REMARK  831  A    between atoms: _2813  and  _2814
REMARK  832  A    between atoms: _2814  and  _2815
REMARK  833  A    between atoms: _2814  and  _2817
REMARK  834  A    between atoms: _2817  and  _2818
REMARK  835  A    between atoms: _2823  and  _2824
REMARK  836  A    between atoms: _2834  and  _2835
REMARK  837  A    between atoms: _2835  and  _2838
REMARK  838  A    between atoms: _2838  and  _2839
REMARK  839  A    between atoms: _2839  and  _2840
REMARK  840  A    between atoms: _2839  and  _2841
REMARK  841  A    between atoms: _2884  and  _2885
REMARK  842  A    between atoms: _2884  and  _2887
REMARK  843  A    between atoms: _2887  and  _2888
REMARK  844  A    between atoms: _2888  and  _2889
REMARK  845  A    between atoms: _2899  and  _2900
REMARK  846  A    between atoms: _2900  and  _2901
REMARK  847  A    between atoms: _2900  and  _2903
REMARK  848  A    between atoms: _2903  and  _2904
REMARK  849  A    between atoms: _2904  and  _2905
REMARK  850  A    between atoms: _2905  and  _2906
REMARK  851  A    between atoms: _2923  and  _2924
REMARK  852  A    between atoms: _2924  and  _2925
REMARK  853  A    between atoms: _2924  and  _2927
REMARK  854  A    between atoms: _2927  and  _2928
REMARK  855  A    between atoms: _2928  and  _2929
REMARK  856  A    between atoms: _2929  and  _2930
REMARK  857  A    between atoms: _2947  and  _2948
REMARK  858  A    between atoms: _2948  and  _2949
REMARK  859  A    between atoms: _2948  and  _2951
REMARK  860  A    between atoms: _2951  and  _2952
REMARK  861  A    between atoms: _2951  and  _2953
REMARK  862  A    between atoms: _2952  and  _2954
REMARK  863  A    between atoms: _2966  and  _2967
REMARK  864  A    between atoms: _2967  and  _2968
REMARK  865  A    between atoms: _2967  and  _2970
REMARK  866  A    between atoms: _2970  and  _2971
REMARK  867  A    between atoms: _2971  and  _2972
REMARK  868  A    between atoms: _2972  and  _2973
REMARK  869  A    between atoms: _2973  and  _2974
REMARK  870  A    between atoms: _2988  and  _2989
REMARK  871  A    between atoms: _2989  and  _2990
REMARK  872  A    between atoms: _2989  and  _2992
REMARK  873  A    between atoms: _2992  and  _2993
REMARK  874  A    between atoms: _2993  and  _2994
REMARK  875  A    between atoms: _3003  and  _3004
REMARK  876  A    between atoms: _3004  and  _3005
REMARK  877  A    between atoms: _3004  and  _3007
REMARK  878  A    between atoms: _3007  and  _3008
REMARK  879  A    between atoms: _3007  and  _3009
REMARK  880  A    between atoms: _3008  and  _3010
REMARK  881  A    between atoms: _3022  and  _3023
REMARK  882  A    between atoms: _3023  and  _3024
REMARK  883  A    between atoms: _3023  and  _3026
REMARK  884  A    between atoms: _3026  and  _3027
REMARK  885  A    between atoms: _3026  and  _3028
REMARK  886  A    between atoms: _3038  and  _3039
REMARK  887  A    between atoms: _3039  and  _3040
REMARK  888  A    between atoms: _3039  and  _3042
REMARK  889  A    between atoms: _3042  and  _3043
REMARK  890  A    between atoms: _3043  and  _3044
REMARK  891  A    between atoms: _3044  and  _3045
REMARK  892  A    between atoms: _3045  and  _3046
REMARK  893  A    between atoms: _3060  and  _3061
REMARK  894  A    between atoms: _3061  and  _3062
REMARK  895  A    between atoms: _3061  and  _3064
REMARK  896  A    between atoms: _3064  and  _3065
REMARK  897  A    between atoms: _3065  and  _3066
REMARK  898  A    between atoms: _3066  and  _3067
REMARK  899  A    between atoms: _3067  and  _3068
REMARK  900  A    between atoms: _3082  and  _3083
REMARK  901  A    between atoms: _3083  and  _3084
REMARK  902  A    between atoms: _3083  and  _3086
REMARK  903  A    between atoms: _3086  and  _3087
REMARK  904  A    between atoms: _3099  and  _3100
REMARK  905  A    between atoms: _3100  and  _3101
REMARK  906  A    between atoms: _3100  and  _3103
REMARK  907  A    between atoms: _3103  and  _3104
REMARK  908  A    between atoms: _3110  and  _3111
REMARK  909  A    between atoms: _3111  and  _3112
REMARK  910  A    between atoms: _3111  and  _3114
REMARK  911  A    between atoms: _3114  and  _3115
REMARK  912  A    between atoms: _3115  and  _3116
REMARK  913  A    between atoms: _3127  and  _3128
REMARK  914  A    between atoms: _3128  and  _3129
REMARK  915  A    between atoms: _3128  and  _3131
REMARK  916  A    between atoms: _3131  and  _3132
REMARK  917  A    between atoms: _3147  and  _3148
REMARK  918  A    between atoms: _3148  and  _3149
REMARK  919  A    between atoms: _3148  and  _3151
REMARK  920  A    between atoms: _3151  and  _3152
REMARK  921  A    between atoms: _3151  and  _3153
REMARK  922  A    between atoms: _3152  and  _3154
REMARK  923  A    between atoms: _3166  and  _3167
REMARK  924  A    between atoms: _3167  and  _3168
REMARK  925  A    between atoms: _3173  and  _3174
REMARK  926  A    between atoms: _3174  and  _3175
REMARK  927  A    between atoms: _3174  and  _3177
REMARK  928  A    between atoms: _3177  and  _3178
REMARK  929  A    between atoms: _3183  and  _3184
REMARK  930  A    between atoms: _3195  and  _3196
REMARK  931  A    between atoms: _3208  and  _3209
REMARK  932  A    between atoms: _3209  and  _3210
REMARK  933  A    between atoms: _3209  and  _3212
REMARK  934  A    between atoms: _3212  and  _3213
REMARK  935  A    between atoms: _3212  and  _3214
REMARK  936  A    between atoms: _3213  and  _3215
REMARK  937  A    between atoms: _3227  and  _3228
REMARK  938  A    between atoms: _3228  and  _3229
REMARK  939  A    between atoms: _3228  and  _3231
REMARK  940  A    between atoms: _3231  and  _3232
REMARK  941  A    between atoms: _3231  and  _3233
REMARK  942  A    between atoms: _3241  and  _3242
REMARK  943  A    between atoms: _3242  and  _3243
REMARK  944  A    between atoms: _3242  and  _3245
REMARK  945  A    between atoms: _3245  and  _3246
REMARK  946  A    between atoms: _3246  and  _3247
REMARK  947  A    between atoms: _3246  and  _3248
REMARK  948  A    between atoms: _3260  and  _3261
REMARK  949  A    between atoms: _3261  and  _3262
REMARK  950  A    between atoms: _3261  and  _3264
REMARK  951  A    between atoms: _3264  and  _3265
REMARK  952  A    between atoms: _3280  and  _3281
REMARK  953  A    between atoms: _3281  and  _3282
REMARK  954  A    between atoms: _3281  and  _3284
REMARK  955  A    between atoms: _3284  and  _3285
REMARK  956  A    between atoms: _3284  and  _3286
REMARK  957  A    between atoms: _3296  and  _3297
REMARK  958  A    between atoms: _3297  and  _3298
REMARK  959  A    between atoms: _3297  and  _3300
REMARK  960  A    between atoms: _3300  and  _3301
REMARK  961  A    between atoms: _3301  and  _3302
REMARK                            x       y       z     vdW  Elec       q    Type
REMARK                         _______ _______ _______ _____ _____    ______ ____
ROOT
ATOM      1  H   UNK     1      13.302  33.155  18.996  0.00  0.00    +0.000 HD
ENDROOT
TORSDOF 0
REMARK  Name = /Users/mlugowska/PhD/ML_residence_time_prediction/protein_files/5J20_protein.pdb
REMARK  961 active torsions:
REMARK  status: ('A' for Active; 'I' for Inactive)
REMARK    1  A    between atoms: _2  and  _3
REMARK    2  A    between atoms: _2  and  _5
REMARK    3  A    between atoms: _10  and  _11
REMARK    4  A    between atoms: _11  and  _12
REMARK    5  A    between atoms: _11  and  _14
REMARK    6  A    between atoms: _14  and  _15
REMARK    7  A    between atoms: _14  and  _16
REMARK    8  A    between atoms: _26  and  _27
REMARK    9  A    between atoms: _27  and  _28
REMARK   10  A    between atoms: _27  and  _30
REMARK   11  A    between atoms: _30  and  _31
REMARK   12  A    between atoms: _31  and  _32
REMARK   13  A    between atoms: _41  and  _42
REMARK   14  A    between atoms: _42  and  _43
REMARK   15  A    between atoms: _42  and  _45
REMARK   16  A    between atoms: _45  and  _46
REMARK   17  A    between atoms: _45  and  _47
REMARK   18  A    between atoms: _55  and  _56
REMARK   19  A    between atoms: _56  and  _57
REMARK   20  A    between atoms: _56  and  _59
REMARK   21  A    between atoms: _59  and  _60
REMARK   22  A    between atoms: _75  and  _76
REMARK   23  A    between atoms: _76  and  _77
REMARK   24  A    between atoms: _76  and  _79
REMARK   25  A    between atoms: _85  and  _86
REMARK   26  A    between atoms: _86  and  _87
REMARK   27  A    between atoms: _86  and  _89
REMARK   28  A    between atoms: _89  and  _90
REMARK   29  A    between atoms: _105  and  _106
REMARK   30  A    between atoms: _106  and  _107
REMARK   31  A    between atoms: _106  and  _109
REMARK   32  A    between atoms: _109  and  _110
REMARK   33  A    between atoms: _110  and  _111
REMARK   34  A    between atoms: _122  and  _123
REMARK   35  A    between atoms: _123  and  _124
REMARK   36  A    between atoms: _123  and  _126
REMARK   37  A    between atoms: _132  and  _133
REMARK   38  A    between atoms: _133  and  _134
REMARK   39  A    between atoms: _133  and  _136
REMARK   40  A    between atoms: _136  and  _137
REMARK   41  A    between atoms: _137  and  _138
REMARK   42  A    between atoms: _147  and  _148
REMARK   43  A    between atoms: _148  and  _149
REMARK   44  A    between atoms: _148  and  _151
REMARK   45  A    between atoms: _151  and  _152
REMARK   46  A    between atoms: _151  and  _153
REMARK   47  A    between atoms: _152  and  _154
REMARK   48  A    between atoms: _166  and  _167
REMARK   49  A    between atoms: _167  and  _168
REMARK   50  A    between atoms: _167  and  _170
REMARK   51  A    between atoms: _176  and  _177
REMARK   52  A    between atoms: _177  and  _178
REMARK   53  A    between atoms: _177  and  _180
REMARK   54  A    between atoms: _180  and  _181
REMARK   55  A    between atoms: _181  and  _182
REMARK   56  A    between atoms: _193  and  _194
REMARK   57  A    between atoms: _194  and  _195
REMARK   58  A    between atoms: _194  and  _197
REMARK   59  A    between atoms: _197  and  _198
REMARK   60  A    between atoms: _198  and  _199
REMARK   61  A    between atoms: _198  and  _200
REMARK   62  A    between atoms: _212  and  _213
REMARK   63  A    between atoms: _213  and  _214
REMARK   64  A    between atoms: _213  and  _216
REMARK   65  A    between atoms: _216  and  _217
REMARK   66  A    between atoms: _217  and  _218
REMARK   67  A    between atoms: _218  and  _219
REMARK   68  A    between atoms: _229  and  _230
REMARK   69  A    between atoms: _230  and  _231
REMARK   70  A    between atoms: _230  and  _233
REMARK   71  A    between atoms: _233  and  _234
REMARK   72  A    between atoms: _240  and  _241
REMARK   73  A    between atoms: _241  and  _242
REMARK   74  A    between atoms: _241  and  _244
REMARK   75  A    between atoms: _244  and  _245
REMARK   76  A    between atoms: _245  and  _246
REMARK   77  A    between atoms: _245  and  _247
REMARK   78  A    between atoms: _259  and  _260
REMARK   79  A    between atoms: _260  and  _261
REMARK   80  A    between atoms: _260  and  _263
REMARK   81  A    between atoms: _263  and  _264
REMARK   82  A    between atoms: _263  and  _265
REMARK   83  A    between atoms: _264  and  _266
REMARK   84  A    between atoms: _278  and  _279
REMARK   85  A    between atoms: _279  and  _280
REMARK   86  A    between atoms: _279  and  _282
REMARK   87  A    between atoms: _282  and  _283
REMARK   88  A    between atoms: _282  and  _284
REMARK   89  A    between atoms: _283  and  _285
REMARK   90  A    between atoms: _297  and  _298
REMARK   91  A    between atoms: _298  and  _299
REMARK   92  A    between atoms: _298  and  _301
REMARK   93  A    between atoms: _301  and  _302
REMARK   94  A    between atoms: _311  and  _312
REMARK   95  A    between atoms: _312  and  _313
REMARK   96  A    between atoms: _312  and  _315
REMARK   97  A    between atoms: _315  and  _316
REMARK   98  A    between atoms: _315  and  _317
REMARK   99  A    between atoms: _325  and  _326
REMARK  100  A    between atoms: _326  and  _327
REMARK  101  A    between atoms: _326  and  _329
REMARK  102  A    between atoms: _329  and  _330
REMARK  103  A    between atoms: _345  and  _346
REMARK  104  A    between atoms: _346  and  _347
REMARK  105  A    between atoms: _346  and  _349
REMARK  106  A    between atoms: _349  and  _350
REMARK  107  A    between atoms: _355  and  _356
REMARK  108  A    between atoms: _366  and  _367
REMARK  109  A    between atoms: _367  and  _368
REMARK  110  A    between atoms: _367  and  _370
REMARK  111  A    between atoms: _370  and  _371
REMARK  112  A    between atoms: _377  and  _378
REMARK  113  A    between atoms: _378  and  _379
REMARK  114  A    between atoms: _378  and  _381
REMARK  115  A    between atoms: _381  and  _382
REMARK  116  A    between atoms: _391  and  _392
REMARK  117  A    between atoms: _392  and  _393
REMARK  118  A    between atoms: _392  and  _395
REMARK  119  A    between atoms: _395  and  _396
REMARK  120  A    between atoms: _396  and  _397
REMARK  121  A    between atoms: _397  and  _398
REMARK  122  A    between atoms: _398  and  _399
REMARK  123  A    between atoms: _413  and  _414
REMARK  124  A    between atoms: _414  and  _415
REMARK  125  A    between atoms: _414  and  _417
REMARK  126  A    between atoms: _417  and  _418
REMARK  127  A    between atoms: _418  and  _419
REMARK  128  A    between atoms: _428  and  _429
REMARK  129  A    between atoms: _429  and  _430
REMARK  130  A    between atoms: _429  and  _432
REMARK  131  A    between atoms: _432  and  _433
REMARK  132  A    between atoms: _432  and  _434
REMARK  133  A    between atoms: _433  and  _435
REMARK  134  A    between atoms: _447  and  _448
REMARK  135  A    between atoms: _448  and  _449
REMARK  136  A    between atoms: _448  and  _451
REMARK  137  A    between atoms: _451  and  _452
REMARK  138  A    between atoms: _467  and  _468
REMARK  139  A    between atoms: _468  and  _469
REMARK  140  A    between atoms: _468  and  _471
REMARK  141  A    between atoms: _471  and  _472
REMARK  142  A    between atoms: _472  and  _473
REMARK  143  A    between atoms: _472  and  _474
REMARK  144  A    between atoms: _486  and  _487
REMARK  145  A    between atoms: _487  and  _488
REMARK  146  A    between atoms: _487  and  _490
REMARK  147  A    between atoms: _490  and  _491
REMARK  148  A    between atoms: _491  and  _492
REMARK  149  A    between atoms: _492  and  _493
REMARK  150  A    between atoms: _510  and  _511
REMARK  151  A    between atoms: _511  and  _512
REMARK  152  A    between atoms: _511  and  _514
REMARK  153  A    between atoms: _514  and  _515
REMARK  154  A    between atoms: _515  and  _516
REMARK  155  A    between atoms: _525  and  _526
REMARK  156  A    between atoms: _526  and  _527
REMARK  157  A    between atoms: _526  and  _529
REMARK  158  A    between atoms: _529  and  _530
REMARK  159  A    between atoms: _530  and  _531
REMARK  160  A    between atoms: _530  and  _532
REMARK  161  A    between atoms: _544  and  _545
REMARK  162  A    between atoms: _545  and  _546
REMARK  163  A    between atoms: _545  and  _548
REMARK  164  A    between atoms: _548  and  _549
REMARK  165  A    between atoms: _548  and  _550
REMARK  166  A    between atoms: _549  and  _551
REMARK  167  A    between atoms: _563  and  _564
REMARK  168  A    between atoms: _564  and  _565
REMARK  169  A    between atoms: _564  and  _567
REMARK  170  A    between atoms: _567  and  _568
REMARK  171  A    between atoms: _574  and  _575
REMARK  172  A    between atoms: _575  and  _576
REMARK  173  A    between atoms: _575  and  _578
REMARK  174  A    between atoms: _578  and  _579
REMARK  175  A    between atoms: _588  and  _589
REMARK  176  A    between atoms: _589  and  _590
REMARK  177  A    between atoms: _589  and  _592
REMARK  178  A    between atoms: _592  and  _593
REMARK  179  A    between atoms: _599  and  _600
REMARK  180  A    between atoms: _600  and  _601
REMARK  181  A    between atoms: _600  and  _603
REMARK  182  A    between atoms: _603  and  _604
REMARK  183  A    between atoms: _610  and  _611
REMARK  184  A    between atoms: _611  and  _612
REMARK  185  A    between atoms: _611  and  _614
REMARK  186  A    between atoms: _614  and  _615
REMARK  187  A    between atoms: _622  and  _623
REMARK  188  A    between atoms: _623  and  _624
REMARK  189  A    between atoms: _623  and  _626
REMARK  190  A    between atoms: _632  and  _633
REMARK  191  A    between atoms: _633  and  _634
REMARK  192  A    between atoms: _633  and  _636
REMARK  193  A    between atoms: _636  and  _637
REMARK  194  A    between atoms: _637  and  _638
REMARK  195  A    between atoms: _637  and  _639
REMARK  196  A    between atoms: _651  and  _652
REMARK  197  A    between atoms: _652  and  _653
REMARK  198  A    between atoms: _652  and  _655
REMARK  199  A    between atoms: _655  and  _656
REMARK  200  A    between atoms: _663  and  _664
REMARK  201  A    between atoms: _664  and  _665
REMARK  202  A    between atoms: _664  and  _667
REMARK  203  A    between atoms: _667  and  _668
REMARK  204  A    between atoms: _668  and  _669
REMARK  205  A    between atoms: _669  and  _670
REMARK  206  A    between atoms: _670  and  _671
REMARK  207  A    between atoms: _685  and  _686
REMARK  208  A    between atoms: _686  and  _687
REMARK  209  A    between atoms: _686  and  _689
REMARK  210  A    between atoms: _689  and  _690
REMARK  211  A    between atoms: _689  and  _691
REMARK  212  A    between atoms: _690  and  _692
REMARK  213  A    between atoms: _704  and  _705
REMARK  214  A    between atoms: _705  and  _706
REMARK  215  A    between atoms: _705  and  _708
REMARK  216  A    between atoms: _708  and  _709
REMARK  217  A    between atoms: _709  and  _710
REMARK  218  A    between atoms: _710  and  _711
REMARK  219  A    between atoms: _728  and  _729
REMARK  220  A    between atoms: _729  and  _730
REMARK  221  A    between atoms: _729  and  _732
REMARK  222  A    between atoms: _732  and  _733
REMARK  223  A    between atoms: _738  and  _739
REMARK  224  A    between atoms: _749  and  _750
REMARK  225  A    between atoms: _750  and  _751
REMARK  226  A    between atoms: _750  and  _753
REMARK  227  A    between atoms: _753  and  _754
REMARK  228  A    between atoms: _754  and  _755
REMARK  229  A    between atoms: _764  and  _765
REMARK  230  A    between atoms: _765  and  _766
REMARK  231  A    between atoms: _765  and  _768
REMARK  232  A    between atoms: _772  and  _773
REMARK  233  A    between atoms: _773  and  _774
REMARK  234  A    between atoms: _773  and  _776
REMARK  235  A    between atoms: _776  and  _777
REMARK  236  A    between atoms: _777  and  _778
REMARK  237  A    between atoms: _777  and  _779
REMARK  238  A    between atoms: _791  and  _792
REMARK  239  A    between atoms: _792  and  _793
REMARK  240  A    between atoms: _792  and  _795
REMARK  241  A    between atoms: _795  and  _796
REMARK  242  A    between atoms: _795  and  _797
REMARK  243  A    between atoms: _805  and  _806
REMARK  244  A    between atoms: _806  and  _807
REMARK  245  A    between atoms: _806  and  _809
REMARK  246  A    between atoms: _809  and  _810
REMARK  247  A    between atoms: _818  and  _819
REMARK  248  A    between atoms: _831  and  _832
REMARK  249  A    between atoms: _832  and  _833
REMARK  250  A    between atoms: _832  and  _835
REMARK  251  A    between atoms: _835  and  _836
REMARK  252  A    between atoms: _842  and  _843
REMARK  253  A    between atoms: _843  and  _844
REMARK  254  A    between atoms: _843  and  _846
REMARK  255  A    between atoms: _846  and  _847
REMARK  256  A    between atoms: _847  and  _848
REMARK  257  A    between atoms: _848  and  _849
REMARK  258  A    between atoms: _849  and  _850
REMARK  259  A    between atoms: _864  and  _865
REMARK  260  A    between atoms: _865  and  _866
REMARK  261  A    between atoms: _865  and  _868
REMARK  262  A    between atoms: _868  and  _869
REMARK  263  A    between atoms: _869  and  _870
REMARK  264  A    between atoms: _869  and  _871
REMARK  265  A    between atoms: _883  and  _884
REMARK  266  A    between atoms: _884  and  _885
REMARK  267  A    between atoms: _884  and  _887
REMARK  268  A    between atoms: _887  and  _888
REMARK  269  A    between atoms: _895  and  _896
REMARK  270  A    between atoms: _896  and  _897
REMARK  271  A    between atoms: _896  and  _899
REMARK  272  A    between atoms: _899  and  _900
REMARK  273  A    between atoms: _906  and  _907
REMARK  274  A    between atoms: _907  and  _908
REMARK  275  A    between atoms: _913  and  _914
REMARK  276  A    between atoms: _914  and  _915
REMARK  277  A    between atoms: _914  and  _917
REMARK  278  A    between atoms: _917  and  _918
REMARK  279  A    between atoms: _918  and  _919
REMARK  280  A    between atoms: _919  and  _920
REMARK  281  A    between atoms: _920  and  _921
REMARK  282  A    between atoms: _935  and  _936
REMARK  283  A    between atoms: _936  and  _937
REMARK  284  A    between atoms: _936  and  _939
REMARK  285  A    between atoms: _939  and  _940
REMARK  286  A    between atoms: _940  and  _941
REMARK  287  A    between atoms: _950  and  _951
REMARK  288  A    between atoms: _951  and  _952
REMARK  289  A    between atoms: _951  and  _954
REMARK  290  A    between atoms: _954  and  _955
REMARK  291  A    between atoms: _955  and  _956
REMARK  292  A    between atoms: _955  and  _957
REMARK  293  A    between atoms: _969  and  _970
REMARK  294  A    between atoms: _970  and  _971
REMARK  295  A    between atoms: _970  and  _973
REMARK  296  A    between atoms: _973  and  _974
REMARK  297  A    between atoms: _986  and  _987
REMARK  298  A    between atoms: _987  and  _988
REMARK  299  A    between atoms: _987  and  _990
REMARK  300  A    between atoms: _990  and  _991
REMARK  301  A    between atoms: _990  and  _992
REMARK  302  A    between atoms: _991  and  _993
REMARK  303  A    between atoms: _1005  and  _1006
REMARK  304  A    between atoms: _1006  and  _1007
REMARK  305  A    between atoms: _1006  and  _1009
REMARK  306  A    between atoms: _1009  and  _1010
REMARK  307  A    between atoms: _1019  and  _1020
REMARK  308  A    between atoms: _1020  and  _1021
REMARK  309  A    between atoms: _1020  and  _1023
REMARK  310  A    between atoms: _1023  and  _1024
REMARK  311  A    between atoms: _1024  and  _1025
REMARK  312  A    between atoms: _1024  and  _1026
REMARK  313  A    between atoms: _1038  and  _1039
REMARK  314  A    between atoms: _1039  and  _1040
REMARK  315  A    between atoms: _1039  and  _1042
REMARK  316  A    between atoms: _1042  and  _1043
REMARK  317  A    between atoms: _1042  and  _1044
REMARK  318  A    between atoms: _1043  and  _1045
REMARK  319  A    between atoms: _1058  and  _1059
REMARK  320  A    between atoms: _1071  and  _1072
REMARK  321  A    between atoms: _1072  and  _1073
REMARK  322  A    between atoms: _1072  and  _1075
REMARK  323  A    between atoms: _1075  and  _1076
REMARK  324  A    between atoms: _1085  and  _1086
REMARK  325  A    between atoms: _1086  and  _1087
REMARK  326  A    between atoms: _1086  and  _1089
REMARK  327  A    between atoms: _1089  and  _1090
REMARK  328  A    between atoms: _1090  and  _1091
REMARK  329  A    between atoms: _1091  and  _1092
REMARK  330  A    between atoms: _1092  and  _1093
REMARK  331  A    between atoms: _1107  and  _1108
REMARK  332  A    between atoms: _1108  and  _1109
REMARK  333  A    between atoms: _1108  and  _1111
REMARK  334  A    between atoms: _1111  and  _1112
REMARK  335  A    between atoms: _1112  and  _1113
REMARK  336  A    between atoms: _1124  and  _1125
REMARK  337  A    between atoms: _1125  and  _1126
REMARK  338  A    between atoms: _1125  and  _1128
REMARK  339  A    between atoms: _1128  and  _1129
REMARK  340  A    between atoms: _1136  and  _1137
REMARK  341  A    between atoms: _1137  and  _1138
REMARK  342  A    between atoms: _1137  and  _1140
REMARK  343  A    between atoms: _1140  and  _1141
REMARK  344  A    between atoms: _1141  and  _1142
REMARK  345  A    between atoms: _1142  and  _1143
REMARK  346  A    between atoms: _1160  and  _1161
REMARK  347  A    between atoms: _1161  and  _1162
REMARK  348  A    between atoms: _1161  and  _1164
REMARK  349  A    between atoms: _1164  and  _1165
REMARK  350  A    between atoms: _1164  and  _1166
REMARK  351  A    between atoms: _1174  and  _1175
REMARK  352  A    between atoms: _1175  and  _1176
REMARK  353  A    between atoms: _1175  and  _1178
REMARK  354  A    between atoms: _1178  and  _1179
REMARK  355  A    between atoms: _1179  and  _1180
REMARK  356  A    between atoms: _1179  and  _1181
REMARK  357  A    between atoms: _1193  and  _1194
REMARK  358  A    between atoms: _1194  and  _1195
REMARK  359  A    between atoms: _1194  and  _1197
REMARK  360  A    between atoms: _1197  and  _1198
REMARK  361  A    between atoms: _1197  and  _1199
REMARK  362  A    between atoms: _1207  and  _1208
REMARK  363  A    between atoms: _1208  and  _1209
REMARK  364  A    between atoms: _1208  and  _1211
REMARK  365  A    between atoms: _1211  and  _1212
REMARK  366  A    between atoms: _1211  and  _1213
REMARK  367  A    between atoms: _1212  and  _1214
REMARK  368  A    between atoms: _1226  and  _1227
REMARK  369  A    between atoms: _1227  and  _1228
REMARK  370  A    between atoms: _1227  and  _1230
REMARK  371  A    between atoms: _1230  and  _1231
REMARK  372  A    between atoms: _1230  and  _1232
REMARK  373  A    between atoms: _1242  and  _1243
REMARK  374  A    between atoms: _1243  and  _1244
REMARK  375  A    between atoms: _1243  and  _1246
REMARK  376  A    between atoms: _1246  and  _1247
REMARK  377  A    between atoms: _1254  and  _1255
REMARK  378  A    between atoms: _1255  and  _1256
REMARK  379  A    between atoms: _1255  and  _1258
REMARK  380  A    between atoms: _1258  and  _1259
REMARK  381  A    between atoms: _1258  and  _1260
REMARK  382  A    between atoms: _1268  and  _1269
REMARK  383  A    between atoms: _1269  and  _1270
REMARK  384  A    between atoms: _1275  and  _1276
REMARK  385  A    between atoms: _1276  and  _1277
REMARK  386  A    between atoms: _1276  and  _1279
REMARK  387  A    between atoms: _1279  and  _1280
REMARK  388  A    between atoms: _1279  and  _1281
REMARK  389  A    between atoms: _1280  and  _1282
REMARK  390  A    between atoms: _1294  and  _1295
REMARK  391  A    between atoms: _1295  and  _1296
REMARK  392  A    between atoms: _1301  and  _1302
REMARK  393  A    between atoms: _1302  and  _1303
REMARK  394  A    between atoms: _1302  and  _1305
REMARK  395  A    between atoms: _1305  and  _1306
REMARK  396  A    between atoms: _1306  and  _1307
REMARK  397  A    between atoms: _1307  and  _1308
REMARK  398  A    between atoms: _1318  and  _1319
REMARK  399  A    between atoms: _1319  and  _1320
REMARK  400  A    between atoms: _1319  and  _1322
REMARK  401  A    between atoms: _1322  and  _1323
REMARK  402  A    between atoms: _1322  and  _1324
REMARK  403  A    between atoms: _1332  and  _1333
REMARK  404  A    between atoms: _1333  and  _1334
REMARK  405  A    between atoms: _1333  and  _1336
REMARK  406  A    between atoms: _1336  and  _1337
REMARK  407  A    between atoms: _1337  and  _1338
REMARK  408  A    between atoms: _1338  and  _1339
REMARK  409  A    between atoms: _1339  and  _1340
REMARK  410  A    between atoms: _1354  and  _1355
REMARK  411  A    between atoms: _1355  and  _1356
REMARK  412  A    between atoms: _1355  and  _1358
REMARK  413  A    between atoms: _1364  and  _1365
REMARK  414  A    between atoms: _1365  and  _1366
REMARK  415  A    between atoms: _1365  and  _1368
REMARK  416  A    between atoms: _1368  and  _1369
REMARK  417  A    between atoms: _1376  and  _1377
REMARK  418  A    between atoms: _1377  and  _1378
REMARK  419  A    between atoms: _1377  and  _1380
REMARK  420  A    between atoms: _1380  and  _1381
REMARK  421  A    between atoms: _1381  and  _1382
REMARK  422  A    between atoms: _1381  and  _1383
REMARK  423  A    between atoms: _1395  and  _1396
REMARK  424  A    between atoms: _1396  and  _1399
REMARK  425  A    between atoms: _1399  and  _1400
REMARK  426  A    between atoms: _1399  and  _1401
REMARK  427  A    between atoms: _1400  and  _1402
REMARK  428  A    between atoms: _1422  and  _1425
REMARK  429  A    between atoms: _1424  and  _1428
REMARK  430  A    between atoms: _1425  and  _1427
REMARK  431  A    between atoms: _1443  and  _1444
REMARK  432  A    between atoms: _1443  and  _1446
REMARK  433  A    between atoms: _1446  and  _1447
REMARK  434  A    between atoms: _1457  and  _1458
REMARK  435  A    between atoms: _1458  and  _1459
REMARK  436  A    between atoms: _1458  and  _1461
REMARK  437  A    between atoms: _1461  and  _1462
REMARK  438  A    between atoms: _1462  and  _1463
REMARK  439  A    between atoms: _1462  and  _1464
REMARK  440  A    between atoms: _1476  and  _1477
REMARK  441  A    between atoms: _1477  and  _1478
REMARK  442  A    between atoms: _1483  and  _1484
REMARK  443  A    between atoms: _1484  and  _1485
REMARK  444  A    between atoms: _1484  and  _1487
REMARK  445  A    between atoms: _1487  and  _1488
REMARK  446  A    between atoms: _1487  and  _1489
REMARK  447  A    between atoms: _1497  and  _1498
REMARK  448  A    between atoms: _1498  and  _1499
REMARK  449  A    between atoms: _1498  and  _1501
REMARK  450  A    between atoms: _1501  and  _1502
REMARK  451  A    between atoms: _1501  and  _1503
REMARK  452  A    between atoms: _1502  and  _1504
REMARK  453  A    between atoms: _1516  and  _1517
REMARK  454  A    between atoms: _1517  and  _1518
REMARK  455  A    between atoms: _1517  and  _1520
REMARK  456  A    between atoms: _1526  and  _1527
REMARK  457  A    between atoms: _1527  and  _1528
REMARK  458  A    between atoms: _1527  and  _1530
REMARK  459  A    between atoms: _1530  and  _1531
REMARK  460  A    between atoms: _1531  and  _1532
REMARK  461  A    between atoms: _1532  and  _1533
REMARK  462  A    between atoms: _1533  and  _1534
REMARK  463  A    between atoms: _1548  and  _1549
REMARK  464  A    between atoms: _1549  and  _1550
REMARK  465  A    between atoms: _1549  and  _1552
REMARK  466  A    between atoms: _1552  and  _1553
REMARK  467  A    between atoms: _1559  and  _1560
REMARK  468  A    between atoms: _1560  and  _1561
REMARK  469  A    between atoms: _1566  and  _1567
REMARK  470  A    between atoms: _1567  and  _1568
REMARK  471  A    between atoms: _1567  and  _1570
REMARK  472  A    between atoms: _1570  and  _1571
REMARK  473  A    between atoms: _1570  and  _1572
REMARK  474  A    between atoms: _1580  and  _1581
REMARK  475  A    between atoms: _1581  and  _1582
REMARK  476  A    between atoms: _1581  and  _1584
REMARK  477  A    between atoms: _1584  and  _1585
REMARK  478  A    between atoms: _1585  and  _1586
REMARK  479  A    between atoms: _1586  and  _1587
REMARK  480  A    between atoms: _1587  and  _1588
REMARK  481  A    between atoms: _1602  and  _1603
REMARK  482  A    between atoms: _1603  and  _1604
REMARK  483  A    between atoms: _1603  and  _1606
REMARK  484  A    between atoms: _1612  and  _1613
REMARK  485  A    between atoms: _1613  and  _1614
REMARK  486  A    between atoms: _1613  and  _1616
REMARK  487  A    between atoms: _1616  and  _1617
REMARK  488  A    between atoms: _1632  and  _1633
REMARK  489  A    between atoms: _1633  and  _1634
REMARK  490  A    between atoms: _1633  and  _1636
REMARK  491  A    between atoms: _1636  and  _1637
REMARK  492  A    between atoms: _1637  and  _1638
REMARK  493  A    between atoms: _1638  and  _1639
REMARK  494  A    between atoms: _1649  and  _1650
REMARK  495  A    between atoms: _1650  and  _1651
REMARK  496  A    between atoms: _1650  and  _1653
REMARK  497  A    between atoms: _1653  and  _1654
REMARK  498  A    between atoms: _1654  and  _1655
REMARK  499  A    between atoms: _1664  and  _1665
REMARK  500  A    between atoms: _1665  and  _1666
REMARK  501  A    between atoms: _1665  and  _1668
REMARK  502  A    between atoms: _1674  and  _1675
REMARK  503  A    between atoms: _1675  and  _1676
REMARK  504  A    between atoms: _1675  and  _1678
REMARK  505  A    between atoms: _1678  and  _1679
REMARK  506  A    between atoms: _1679  and  _1680
REMARK  507  A    between atoms: _1679  and  _1681
REMARK  508  A    between atoms: _1693  and  _1694
REMARK  509  A    between atoms: _1694  and  _1695
REMARK  510  A    between atoms: _1694  and  _1697
REMARK  511  A    between atoms: _1697  and  _1698
REMARK  512  A    between atoms: _1698  and  _1699
REMARK  513  A    between atoms: _1710  and  _1711
REMARK  514  A    between atoms: _1711  and  _1712
REMARK  515  A    between atoms: _1711  and  _1714
REMARK  516  A    between atoms: _1720  and  _1721
REMARK  517  A    between atoms: _1721  and  _1722
REMARK  518  A    between atoms: _1727  and  _1728
REMARK  519  A    between atoms: _1728  and  _1729
REMARK  520  A    between atoms: _1728  and  _1731
REMARK  521  A    between atoms: _1737  and  _1738
REMARK  522  A    between atoms: _1738  and  _1739
REMARK  523  A    between atoms: _1738  and  _1741
REMARK  524  A    between atoms: _1741  and  _1742
REMARK  525  A    between atoms: _1749  and  _1750
REMARK  526  A    between atoms: _1750  and  _1751
REMARK  527  A    between atoms: _1750  and  _1753
REMARK  528  A    between atoms: _1753  and  _1754
REMARK  529  A    between atoms: _1753  and  _1755
REMARK  530  A    between atoms: _1754  and  _1756
REMARK  531  A    between atoms: _1768  and  _1769
REMARK  532  A    between atoms: _1769  and  _1772
REMARK  533  A    between atoms: _1772  and  _1773
REMARK  534  A    between atoms: _1791  and  _1793
REMARK  535  A    between atoms: _1792  and  _1794
REMARK  536  A    between atoms: _1814  and  _1815
REMARK  537  A    between atoms: _1814  and  _1817
REMARK  538  A    between atoms: _1817  and  _1818
REMARK  539  A    between atoms: _1817  and  _1819
REMARK  540  A    between atoms: _1818  and  _1820
REMARK  541  A    between atoms: _1833  and  _1834
REMARK  542  A    between atoms: _1834  and  _1835
REMARK  543  A    between atoms: _1840  and  _1841
REMARK  544  A    between atoms: _1841  and  _1842
REMARK  545  A    between atoms: _1841  and  _1844
REMARK  546  A    between atoms: _1844  and  _1845
REMARK  547  A    between atoms: _1845  and  _1846
REMARK  548  A    between atoms: _1857  and  _1858
REMARK  549  A    between atoms: _1858  and  _1859
REMARK  550  A    between atoms: _1858  and  _1861
REMARK  551  A    between atoms: _1861  and  _1862
REMARK  552  A    between atoms: _1877  and  _1878
REMARK  553  A    between atoms: _1878  and  _1879
REMARK  554  A    between atoms: _1884  and  _1885
REMARK  555  A    between atoms: _1885  and  _1886
REMARK  556  A    between atoms: _1885  and  _1888
REMARK  557  A    between atoms: _1888  and  _1889
REMARK  558  A    between atoms: _1888  and  _1890
REMARK  559  A    between atoms: _1900  and  _1901
REMARK  560  A    between atoms: _1901  and  _1902
REMARK  561  A    between atoms: _1907  and  _1908
REMARK  562  A    between atoms: _1908  and  _1909
REMARK  563  A    between atoms: _1908  and  _1911
REMARK  564  A    between atoms: _1911  and  _1912
REMARK  565  A    between atoms: _1927  and  _1928
REMARK  566  A    between atoms: _1928  and  _1929
REMARK  567  A    between atoms: _1928  and  _1931
REMARK  568  A    between atoms: _1931  and  _1932
REMARK  569  A    between atoms: _1937  and  _1938
REMARK  570  A    between atoms: _1948  and  _1949
REMARK  571  A    between atoms: _1949  and  _1950
REMARK  572  A    between atoms: _1949  and  _1952
REMARK  573  A    between atoms: _1952  and  _1953
REMARK  574  A    between atoms: _1959  and  _1960
REMARK  575  A    between atoms: _1960  and  _1961
REMARK  576  A    between atoms: _1960  and  _1963
REMARK  577  A    between atoms: _1969  and  _1970
REMARK  578  A    between atoms: _1970  and  _1971
REMARK  579  A    between atoms: _1970  and  _1973
REMARK  580  A    between atoms: _1973  and  _1974
REMARK  581  A    between atoms: _1979  and  _1980
REMARK  582  A    between atoms: _1990  and  _1991
REMARK  583  A    between atoms: _1991  and  _1992
REMARK  584  A    between atoms: _1991  and  _1994
REMARK  585  A    between atoms: _1994  and  _1995
REMARK  586  A    between atoms: _1995  and  _1996
REMARK  587  A    between atoms: _1995  and  _1997
REMARK  588  A    between atoms: _2009  and  _2010
REMARK  589  A    between atoms: _2010  and  _2011
REMARK  590  A    between atoms: _2010  and  _2013
REMARK  591  A    between atoms: _2013  and  _2014
REMARK  592  A    between atoms: _2013  and  _2015
REMARK  593  A    between atoms: _2025  and  _2026
REMARK  594  A    between atoms: _2026  and  _2027
REMARK  595  A    between atoms: _2026  and  _2029
REMARK  596  A    between atoms: _2035  and  _2036
REMARK  597  A    between atoms: _2036  and  _2037
REMARK  598  A    between atoms: _2036  and  _2039
REMARK  599  A    between atoms: _2039  and  _2040
REMARK  600  A    between atoms: _2040  and  _2041
REMARK  601  A    between atoms: _2050  and  _2051
REMARK  602  A    between atoms: _2051  and  _2052
REMARK  603  A    between atoms: _2051  and  _2054
REMARK  604  A    between atoms: _2054  and  _2055
REMARK  605  A    between atoms: _2055  and  _2056
REMARK  606  A    between atoms: _2056  and  _2057
REMARK  607  A    between atoms: _2057  and  _2058
REMARK  608  A    between atoms: _2072  and  _2073
REMARK  609  A    between atoms: _2073  and  _2074
REMARK  610  A    between atoms: _2073  and  _2076
REMARK  611  A    between atoms: _2076  and  _2077
REMARK  612  A    between atoms: _2076  and  _2078
REMARK  613  A    between atoms: _2088  and  _2089
REMARK  614  A    between atoms: _2089  and  _2090
REMARK  615  A    between atoms: _2089  and  _2092
REMARK  616  A    between atoms: _2092  and  _2093
REMARK  617  A    between atoms: _2092  and  _2094
REMARK  618  A    between atoms: _2102  and  _2103
REMARK  619  A    between atoms: _2103  and  _2104
REMARK  620  A    between atoms: _2103  and  _2106
REMARK  621  A    between atoms: _2106  and  _2107
REMARK  622  A    between atoms: _2106  and  _2108
REMARK  623  A    between atoms: _2118  and  _2119
REMARK  624  A    between atoms: _2119  and  _2120
REMARK  625  A    between atoms: _2119  and  _2122
REMARK  626  A    between atoms: _2122  and  _2123
REMARK  627  A    between atoms: _2122  and  _2124
REMARK  628  A    between atoms: _2123  and  _2125
REMARK  629  A    between atoms: _2137  and  _2138
REMARK  630  A    between atoms: _2138  and  _2139
REMARK  631  A    between atoms: _2138  and  _2141
REMARK  632  A    between atoms: _2141  and  _2142
REMARK  633  A    between atoms: _2141  and  _2143
REMARK  634  A    between atoms: _2151  and  _2152
REMARK  635  A    between atoms: _2152  and  _2153
REMARK  636  A    between atoms: _2152  and  _2155
REMARK  637  A    between atoms: _2155  and  _2156
REMARK  638  A    between atoms: _2156  and  _2157
REMARK  639  A    between atoms: _2157  and  _2158
REMARK  640  A    between atoms: _2158  and  _2159
REMARK  641  A    between atoms: _2173  and  _2174
REMARK  642  A    between atoms: _2174  and  _2175
REMARK  643  A    between atoms: _2174  and  _2177
REMARK  644  A    between atoms: _2177  and  _2178
REMARK  645  A    between atoms: _2190  and  _2191
REMARK  646  A    between atoms: _2191  and  _2192
REMARK  647  A    between atoms: _2191  and  _2194
REMARK  648  A    between atoms: _2194  and  _2195
REMARK  649  A    between atoms: _2204  and  _2205
REMARK  650  A    between atoms: _2205  and  _2206
REMARK  651  A    between atoms: _2205  and  _2208
REMARK  652  A    between atoms: _2208  and  _2209
REMARK  653  A    between atoms: _2216  and  _2217
REMARK  654  A    between atoms: _2217  and  _2218
REMARK  655  A    between atoms: _2217  and  _2220
REMARK  656  A    between atoms: _2220  and  _2221
REMARK  657  A    between atoms: _2228  and  _2229
REMARK  658  A    between atoms: _2229  and  _2230
REMARK  659  A    between atoms: _2229  and  _2232
REMARK  660  A    between atoms: _2232  and  _2233
REMARK  661  A    between atoms: _2233  and  _2234
REMARK  662  A    between atoms: _2243  and  _2244
REMARK  663  A    between atoms: _2244  and  _2245
REMARK  664  A    between atoms: _2244  and  _2247
REMARK  665  A    between atoms: _2247  and  _2248
REMARK  666  A    between atoms: _2248  and  _2249
REMARK  667  A    between atoms: _2260  and  _2261
REMARK  668  A    between atoms: _2261  and  _2262
REMARK  669  A    between atoms: _2261  and  _2264
REMARK  670  A    between atoms: _2264  and  _2265
REMARK  671  A    between atoms: _2270  and  _2271
REMARK  672  A    between atoms: _2281  and  _2282
REMARK  673  A    between atoms: _2282  and  _2283
REMARK  674  A    between atoms: _2282  and  _2285
REMARK  675  A    between atoms: _2291  and  _2292
REMARK  676  A    between atoms: _2292  and  _2293
REMARK  677  A    between atoms: _2292  and  _2295
REMARK  678  A    between atoms: _2295  and  _2296
REMARK  679  A    between atoms: _2315  and  _2316
REMARK  680  A    between atoms: _2316  and  _2317
REMARK  681  A    between atoms: _2316  and  _2319
REMARK  682  A    between atoms: _2319  and  _2320
REMARK  683  A    between atoms: _2320  and  _2321
REMARK  684  A    between atoms: _2330  and  _2331
REMARK  685  A    between atoms: _2331  and  _2332
REMARK  686  A    between atoms: _2331  and  _2334
REMARK  687  A    between atoms: _2334  and  _2335
REMARK  688  A    between atoms: _2341  and  _2342
REMARK  689  A    between atoms: _2342  and  _2343
REMARK  690  A    between atoms: _2342  and  _2345
REMARK  691  A    between atoms: _2345  and  _2346
REMARK  692  A    between atoms: _2352  and  _2353
REMARK  693  A    between atoms: _2353  and  _2354
REMARK  694  A    between atoms: _2353  and  _2356
REMARK  695  A    between atoms: _2362  and  _2363
REMARK  696  A    between atoms: _2363  and  _2364
REMARK  697  A    between atoms: _2369  and  _2370
REMARK  698  A    between atoms: _2370  and  _2371
REMARK  699  A    between atoms: _2376  and  _2377
REMARK  700  A    between atoms: _2377  and  _2378
REMARK  701  A    between atoms: _2377  and  _2380
REMARK  702  A    between atoms: _2380  and  _2381
REMARK  703  A    between atoms: _2387  and  _2388
REMARK  704  A    between atoms: _2388  and  _2389
REMARK  705  A    between atoms: _2388  and  _2391
REMARK  706  A    between atoms: _2391  and  _2392
REMARK  707  A    between atoms: _2407  and  _2408
REMARK  708  A    between atoms: _2408  and  _2409
REMARK  709  A    between atoms: _2408  and  _2411
REMARK  710  A    between atoms: _2411  and  _2412
REMARK  711  A    between atoms: _2411  and  _2413
REMARK  712  A    between atoms: _2421  and  _2422
REMARK  713  A    between atoms: _2422  and  _2423
REMARK  714  A    between atoms: _2422  and  _2425
REMARK  715  A    between atoms: _2425  and  _2426
REMARK  716  A    between atoms: _2425  and  _2427
REMARK  717  A    between atoms: _2437  and  _2438
REMARK  718  A    between atoms: _2438  and  _2439
REMARK  719  A    between atoms: _2438  and  _2441
REMARK  720  A    between atoms: _2441  and  _2442
REMARK  721  A    between atoms: _2442  and  _2443
REMARK  722  A    between atoms: _2443  and  _2444
REMARK  723  A    between atoms: _2461  and  _2462
REMARK  724  A    between atoms: _2462  and  _2463
REMARK  725  A    between atoms: _2462  and  _2465
REMARK  726  A    between atoms: _2465  and  _2466
REMARK  727  A    between atoms: _2465  and  _2467
REMARK  728  A    between atoms: _2475  and  _2476
REMARK  729  A    between atoms: _2476  and  _2477
REMARK  730  A    between atoms: _2476  and  _2479
REMARK  731  A    between atoms: _2479  and  _2480
REMARK  732  A    between atoms: _2487  and  _2488
REMARK  733  A    between atoms: _2488  and  _2489
REMARK  734  A    between atoms: _2488  and  _2491
REMARK  735  A    between atoms: _2491  and  _2492
REMARK  736  A    between atoms: _2491  and  _2493
REMARK  737  A    between atoms: _2501  and  _2502
REMARK  738  A    between atoms: _2502  and  _2503
REMARK  739  A    between atoms: _2508  and  _2509
REMARK  740  A    between atoms: _2509  and  _2510
REMARK  741  A    between atoms: _2509  and  _2512
REMARK  742  A    between atoms: _2512  and  _2513
REMARK  743  A    between atoms: _2513  and  _2514
REMARK  744  A    between atoms: _2524  and  _2525
REMARK  745  A    between atoms: _2537  and  _2538
REMARK  746  A    between atoms: _2538  and  _2539
REMARK  747  A    between atoms: _2538  and  _2541
REMARK  748  A    between atoms: _2541  and  _2542
REMARK  749  A    between atoms: _2542  and  _2543
REMARK  750  A    between atoms: _2543  and  _2544
REMARK  751  A    between atoms: _2554  and  _2555
REMARK  752  A    between atoms: _2555  and  _2556
REMARK  753  A    between atoms: _2561  and  _2562
REMARK  754  A    between atoms: _2562  and  _2563
REMARK  755  A    between atoms: _2562  and  _2565
REMARK  756  A    between atoms: _2565  and  _2566
REMARK  757  A    between atoms: _2566  and  _2567
REMARK  758  A    between atoms: _2567  and  _2568
REMARK  759  A    between atoms: _2585  and  _2586
REMARK  760  A    between atoms: _2586  and  _2587
REMARK  761  A    between atoms: _2592  and  _2593
REMARK  762  A    between atoms: _2593  and  _2594
REMARK  763  A    between atoms: _2593  and  _2596
REMARK  764  A    between atoms: _2596  and  _2597
REMARK  765  A    between atoms: _2596  and  _2598
REMARK  766  A    between atoms: _2606  and  _2607
REMARK  767  A    between atoms: _2607  and  _2608
REMARK  768  A    between atoms: _2607  and  _2610
REMARK  769  A    between atoms: _2610  and  _2611
REMARK  770  A    between atoms: _2611  and  _2612
REMARK  771  A    between atoms: _2612  and  _2613
REMARK  772  A    between atoms: _2613  and  _2614
REMARK  773  A    between atoms: _2628  and  _2629
REMARK  774  A    between atoms: _2629  and  _2630
REMARK  775  A    between atoms: _2629  and  _2632
REMARK  776  A    between atoms: _2632  and  _2633
REMARK  777  A    between atoms: _2632  and  _2634
REMARK  778  A    between atoms: _2644  and  _2645
REMARK  779  A    between atoms: _2645  and  _2646
REMARK  780  A    between atoms: _2645  and  _2648
REMARK  781  A    between atoms: _2648  and  _2649
REMARK  782  A    between atoms: _2648  and  _2650
REMARK  783  A    between atoms: _2649  and  _2651
REMARK  784  A    between atoms: _2663  and  _2664
REMARK  785  A    between atoms: _2664  and  _2665
REMARK  786  A    between atoms: _2664  and  _2667
REMARK  787  A    between atoms: _2667  and  _2668
REMARK  788  A    between atoms: _2668  and  _2669
REMARK  789  A    between atoms: _2668  and  _2670
REMARK  790  A    between atoms: _2682  and  _2683
REMARK  791  A    between atoms: _2683  and  _2684
REMARK  792  A    between atoms: _2683  and  _2686
REMARK  793  A    between atoms: _2686  and  _2687
REMARK  794  A    between atoms: _2699  and  _2700
REMARK  795  A    between atoms: _2700  and  _2701
REMARK  796  A    between atoms: _2700  and  _2703
REMARK  797  A    between atoms: _2703  and  _2704
REMARK  798  A    between atoms: _2704  and  _2705
REMARK  799  A    between atoms: _2704  and  _2706
REMARK  800  A    between atoms: _2718  and  _2719
REMARK  801  A    between atoms: _2719  and  _2720
REMARK  802  A    between atoms: _2719  and  _2722
REMARK  803  A    between atoms: _2722  and  _2723
REMARK  804  A    between atoms: _2723  and  _2724
REMARK  805  A    between atoms: _2724  and  _2725
REMARK  806  A    between atoms: _2725  and  _2726
REMARK  807  A    between atoms: _2740  and  _2741
REMARK  808  A    between atoms: _2741  and  _2742
REMARK  809  A    between atoms: _2741  and  _2744
REMARK  810  A    between atoms: _2744  and  _2745
REMARK  811  A    between atoms: _2745  and  _2746
REMARK  812  A    between atoms: _2755  and  _2756
REMARK  813  A    between atoms: _2756  and  _2757
REMARK  814  A    between atoms: _2756  and  _2759
REMARK  815  A    between atoms: _2759  and  _2760
REMARK  816  A    between atoms: _2767  and  _2768
REMARK  817  A    between atoms: _2768  and  _2769
REMARK  818  A    between atoms: _2768  and  _2771
REMARK  819  A    between atoms: _2771  and  _2772
REMARK  820  A    between atoms: _2772  and  _2773
REMARK  821  A    between atoms: _2784  and  _2785
REMARK  822  A    between atoms: _2785  and  _2786
REMARK  823  A    between atoms: _2785  and  _2788
REMARK  824  A    between atoms: _2788  and  _2789
REMARK  825  A    between atoms: _2788  and  _2790
REMARK  826  A    between atoms: _2798  and  _2799
REMARK  827  A    between atoms: _2799  and  _2800
REMARK  828  A    between atoms: _2799  and  _2802
REMARK  829  A    between atoms: _2802  and  _2803
REMARK  830  A    between atoms: _2803  and  _2804
REMARK  831  A    between atoms: _2813  and  _2814
REMARK  832  A    between atoms: _2814  and  _2815
REMARK  833  A    between atoms: _2814  and  _2817
REMARK  834  A    between atoms: _2817  and  _2818
REMARK  835  A    between atoms: _2823  and  _2824
REMARK  836  A    between atoms: _2834  and  _2835
REMARK  837  A    between atoms: _2835  and  _2838
REMARK  838  A    between atoms: _2838  and  _2839
REMARK  839  A    between atoms: _2839  and  _2840
REMARK  840  A    between atoms: _2839  and  _2841
REMARK  841  A    between atoms: _2884  and  _2885
REMARK  842  A    between atoms: _2884  and  _2887
REMARK  843  A    between atoms: _2887  and  _2888
REMARK  844  A    between atoms: _2888  and  _2889
REMARK  845  A    between atoms: _2899  and  _2900
REMARK  846  A    between atoms: _2900  and  _2901
REMARK  847  A    between atoms: _2900  and  _2903
REMARK  848  A    between atoms: _2903  and  _2904
REMARK  849  A    between atoms: _2904  and  _2905
REMARK  850  A    between atoms: _2905  and  _2906
REMARK  851  A    between atoms: _2923  and  _2924
REMARK  852  A    between atoms: _2924  and  _2925
REMARK  853  A    between atoms: _2924  and  _2927
REMARK  854  A    between atoms: _2927  and  _2928
REMARK  855  A    between atoms: _2928  and  _2929
REMARK  856  A    between atoms: _2929  and  _2930
REMARK  857  A    between atoms: _2947  and  _2948
REMARK  858  A    between atoms: _2948  and  _2949
REMARK  859  A    between atoms: _2948  and  _2951
REMARK  860  A    between atoms: _2951  and  _2952
REMARK  861  A    between atoms: _2951  and  _2953
REMARK  862  A    between atoms: _2952  and  _2954
REMARK  863  A    between atoms: _2966  and  _2967
REMARK  864  A    between atoms: _2967  and  _2968
REMARK  865  A    between atoms: _2967  and  _2970
REMARK  866  A    between atoms: _2970  and  _2971
REMARK  867  A    between atoms: _2971  and  _2972
REMARK  868  A    between atoms: _2972  and  _2973
REMARK  869  A    between atoms: _2973  and  _2974
REMARK  870  A    between atoms: _2988  and  _2989
REMARK  871  A    between atoms: _2989  and  _2990
REMARK  872  A    between atoms: _2989  and  _2992
REMARK  873  A    between atoms: _2992  and  _2993
REMARK  874  A    between atoms: _2993  and  _2994
REMARK  875  A    between atoms: _3003  and  _3004
REMARK  876  A    between atoms: _3004  and  _3005
REMARK  877  A    between atoms: _3004  and  _3007
REMARK  878  A    between atoms: _3007  and  _3008
REMARK  879  A    between atoms: _3007  and  _3009
REMARK  880  A    between atoms: _3008  and  _3010
REMARK  881  A    between atoms: _3022  and  _3023
REMARK  882  A    between atoms: _3023  and  _3024
REMARK  883  A    between atoms: _3023  and  _3026
REMARK  884  A    between atoms: _3026  and  _3027
REMARK  885  A    between atoms: _3026  and  _3028
REMARK  886  A    between atoms: _3038  and  _3039
REMARK  887  A    between atoms: _3039  and  _3040
REMARK  888  A    between atoms: _3039  and  _3042
REMARK  889  A    between atoms: _3042  and  _3043
REMARK  890  A    between atoms: _3043  and  _3044
REMARK  891  A    between atoms: _3044  and  _3045
REMARK  892  A    between atoms: _3045  and  _3046
REMARK  893  A    between atoms: _3060  and  _3061
REMARK  894  A    between atoms: _3061  and  _3062
REMARK  895  A    between atoms: _3061  and  _3064
REMARK  896  A    between atoms: _3064  and  _3065
REMARK  897  A    between atoms: _3065  and  _3066
REMARK  898  A    between atoms: _3066  and  _3067
REMARK  899  A    between atoms: _3067  and  _3068
REMARK  900  A    between atoms: _3082  and  _3083
REMARK  901  A    between atoms: _3083  and  _3084
REMARK  902  A    between atoms: _3083  and  _3086
REMARK  903  A    between atoms: _3086  and  _3087
REMARK  904  A    between atoms: _3099  and  _3100
REMARK  905  A    between atoms: _3100  and  _3101
REMARK  906  A    between atoms: _3100  and  _3103
REMARK  907  A    between atoms: _3103  and  _3104
REMARK  908  A    between atoms: _3110  and  _3111
REMARK  909  A    between atoms: _3111  and  _3112
REMARK  910  A    between atoms: _3111  and  _3114
REMARK  911  A    between atoms: _3114  and  _3115
REMARK  912  A    between atoms: _3115  and  _3116
REMARK  913  A    between atoms: _3127  and  _3128
REMARK  914  A    between atoms: _3128  and  _3129
REMARK  915  A    between atoms: _3128  and  _3131
REMARK  916  A    between atoms: _3131  and  _3132
REMARK  917  A    between atoms: _3147  and  _3148
REMARK  918  A    between atoms: _3148  and  _3149
REMARK  919  A    between atoms: _3148  and  _3151
REMARK  920  A    between atoms: _3151  and  _3152
REMARK  921  A    between atoms: _3151  and  _3153
REMARK  922  A    between atoms: _3152  and  _3154
REMARK  923  A    between atoms: _3166  and  _3167
REMARK  924  A    between atoms: _3167  and  _3168
REMARK  925  A    between atoms: _3173  and  _3174
REMARK  926  A    between atoms: _3174  and  _3175
REMARK  927  A    between atoms: _3174  and  _3177
REMARK  928  A    between atoms: _3177  and  _3178
REMARK  929  A    between atoms: _3183  and  _3184
REMARK  930  A    between atoms: _3195  and  _3196
REMARK  931  A    between atoms: _3208  and  _3209
REMARK  932  A    between atoms: _3209  and  _3210
REMARK  933  A    between atoms: _3209  and  _3212
REMARK  934  A    between atoms: _3212  and  _3213
REMARK  935  A    between atoms: _3212  and  _3214
REMARK  936  A    between atoms: _3213  and  _3215
REMARK  937  A    between atoms: _3227  and  _3228
REMARK  938  A    between atoms: _3228  and  _3229
REMARK  939  A    between atoms: _3228  and  _3231
REMARK  940  A    between atoms: _3231  and  _3232
REMARK  941  A    between atoms: _3231  and  _3233
REMARK  942  A    between atoms: _3241  and  _3242
REMARK  943  A    between atoms: _3242  and  _3243
REMARK  944  A    between atoms: _3242  and  _3245
REMARK  945  A    between atoms: _3245  and  _3246
REMARK  946  A    between atoms: _3246  and  _3247
REMARK  947  A    between atoms: _3246  and  _3248
REMARK  948  A    between atoms: _3260  and  _3261
REMARK  949  A    between atoms: _3261  and  _3262
REMARK  950  A    between atoms: _3261  and  _3264
REMARK  951  A    between atoms: _3264  and  _3265
REMARK  952  A    between atoms: _3280  and  _3281
REMARK  953  A    between atoms: _3281  and  _3282
REMARK  954  A    between atoms: _3281  and  _3284
REMARK  955  A    between atoms: _3284  and  _3285
REMARK  956  A    between atoms: _3284  and  _3286
REMARK  957  A    between atoms: _3296  and  _3297
REMARK  958  A    between atoms: _3297  and  _3298
REMARK  959  A    between atoms: _3297  and  _3300
REMARK  960  A    between atoms: _3300  and  _3301
REMARK  961  A    between atoms: _3301  and  _3302
REMARK                            x       y       z     vdW  Elec       q    Type
REMARK                         _______ _______ _______ _____ _____    ______ ____
ROOT
ATOM      1  N   UNL     1      11.098  35.319  17.850  0.00  0.00    -0.163 NA
ATOM      2  H   UNL     1      10.512  34.814  17.193  0.00  0.00    +0.163 HD
ENDROOT
TORSDOF 0
REMARK  Name = /Users/mlugowska/PhD/ML_residence_time_prediction/protein_files/5J20_protein.pdb
REMARK  961 active torsions:
REMARK  status: ('A' for Active; 'I' for Inactive)
REMARK    1  A    between atoms: _2  and  _3
REMARK    2  A    between atoms: _2  and  _5
REMARK    3  A    between atoms: _10  and  _11
REMARK    4  A    between atoms: _11  and  _12
REMARK    5  A    between atoms: _11  and  _14
REMARK    6  A    between atoms: _14  and  _15
REMARK    7  A    between atoms: _14  and  _16
REMARK    8  A    between atoms: _26  and  _27
REMARK    9  A    between atoms: _27  and  _28
REMARK   10  A    between atoms: _27  and  _30
REMARK   11  A    between atoms: _30  and  _31
REMARK   12  A    between atoms: _31  and  _32
REMARK   13  A    between atoms: _41  and  _42
REMARK   14  A    between atoms: _42  and  _43
REMARK   15  A    between atoms: _42  and  _45
REMARK   16  A    between atoms: _45  and  _46
REMARK   17  A    between atoms: _45  and  _47
REMARK   18  A    between atoms: _55  and  _56
REMARK   19  A    between atoms: _56  and  _57
REMARK   20  A    between atoms: _56  and  _59
REMARK   21  A    between atoms: _59  and  _60
REMARK   22  A    between atoms: _75  and  _76
REMARK   23  A    between atoms: _76  and  _77
REMARK   24  A    between atoms: _76  and  _79
REMARK   25  A    between atoms: _85  and  _86
REMARK   26  A    between atoms: _86  and  _87
REMARK   27  A    between atoms: _86  and  _89
REMARK   28  A    between atoms: _89  and  _90
REMARK   29  A    between atoms: _105  and  _106
REMARK   30  A    between atoms: _106  and  _107
REMARK   31  A    between atoms: _106  and  _109
REMARK   32  A    between atoms: _109  and  _110
REMARK   33  A    between atoms: _110  and  _111
REMARK   34  A    between atoms: _122  and  _123
REMARK   35  A    between atoms: _123  and  _124
REMARK   36  A    between atoms: _123  and  _126
REMARK   37  A    between atoms: _132  and  _133
REMARK   38  A    between atoms: _133  and  _134
REMARK   39  A    between atoms: _133  and  _136
REMARK   40  A    between atoms: _136  and  _137
REMARK   41  A    between atoms: _137  and  _138
REMARK   42  A    between atoms: _147  and  _148
REMARK   43  A    between atoms: _148  and  _149
REMARK   44  A    between atoms: _148  and  _151
REMARK   45  A    between atoms: _151  and  _152
REMARK   46  A    between atoms: _151  and  _153
REMARK   47  A    between atoms: _152  and  _154
REMARK   48  A    between atoms: _166  and  _167
REMARK   49  A    between atoms: _167  and  _168
REMARK   50  A    between atoms: _167  and  _170
REMARK   51  A    between atoms: _176  and  _177
REMARK   52  A    between atoms: _177  and  _178
REMARK   53  A    between atoms: _177  and  _180
REMARK   54  A    between atoms: _180  and  _181
REMARK   55  A    between atoms: _181  and  _182
REMARK   56  A    between atoms: _193  and  _194
REMARK   57  A    between atoms: _194  and  _195
REMARK   58  A    between atoms: _194  and  _197
REMARK   59  A    between atoms: _197  and  _198
REMARK   60  A    between atoms: _198  and  _199
REMARK   61  A    between atoms: _198  and  _200
REMARK   62  A    between atoms: _212  and  _213
REMARK   63  A    between atoms: _213  and  _214
REMARK   64  A    between atoms: _213  and  _216
REMARK   65  A    between atoms: _216  and  _217
REMARK   66  A    between atoms: _217  and  _218
REMARK   67  A    between atoms: _218  and  _219
REMARK   68  A    between atoms: _229  and  _230
REMARK   69  A    between atoms: _230  and  _231
REMARK   70  A    between atoms: _230  and  _233
REMARK   71  A    between atoms: _233  and  _234
REMARK   72  A    between atoms: _240  and  _241
REMARK   73  A    between atoms: _241  and  _242
REMARK   74  A    between atoms: _241  and  _244
REMARK   75  A    between atoms: _244  and  _245
REMARK   76  A    between atoms: _245  and  _246
REMARK   77  A    between atoms: _245  and  _247
REMARK   78  A    between atoms: _259  and  _260
REMARK   79  A    between atoms: _260  and  _261
REMARK   80  A    between atoms: _260  and  _263
REMARK   81  A    between atoms: _263  and  _264
REMARK   82  A    between atoms: _263  and  _265
REMARK   83  A    between atoms: _264  and  _266
REMARK   84  A    between atoms: _278  and  _279
REMARK   85  A    between atoms: _279  and  _280
REMARK   86  A    between atoms: _279  and  _282
REMARK   87  A    between atoms: _282  and  _283
REMARK   88  A    between atoms: _282  and  _284
REMARK   89  A    between atoms: _283  and  _285
REMARK   90  A    between atoms: _297  and  _298
REMARK   91  A    between atoms: _298  and  _299
REMARK   92  A    between atoms: _298  and  _301
REMARK   93  A    between atoms: _301  and  _302
REMARK   94  A    between atoms: _311  and  _312
REMARK   95  A    between atoms: _312  and  _313
REMARK   96  A    between atoms: _312  and  _315
REMARK   97  A    between atoms: _315  and  _316
REMARK   98  A    between atoms: _315  and  _317
REMARK   99  A    between atoms: _325  and  _326
REMARK  100  A    between atoms: _326  and  _327
REMARK  101  A    between atoms: _326  and  _329
REMARK  102  A    between atoms: _329  and  _330
REMARK  103  A    between atoms: _345  and  _346
REMARK  104  A    between atoms: _346  and  _347
REMARK  105  A    between atoms: _346  and  _349
REMARK  106  A    between atoms: _349  and  _350
REMARK  107  A    between atoms: _355  and  _356
REMARK  108  A    between atoms: _366  and  _367
REMARK  109  A    between atoms: _367  and  _368
REMARK  110  A    between atoms: _367  and  _370
REMARK  111  A    between atoms: _370  and  _371
REMARK  112  A    between atoms: _377  and  _378
REMARK  113  A    between atoms: _378  and  _379
REMARK  114  A    between atoms: _378  and  _381
REMARK  115  A    between atoms: _381  and  _382
REMARK  116  A    between atoms: _391  and  _392
REMARK  117  A    between atoms: _392  and  _393
REMARK  118  A    between atoms: _392  and  _395
REMARK  119  A    between atoms: _395  and  _396
REMARK  120  A    between atoms: _396  and  _397
REMARK  121  A    between atoms: _397  and  _398
REMARK  122  A    between atoms: _398  and  _399
REMARK  123  A    between atoms: _413  and  _414
REMARK  124  A    between atoms: _414  and  _415
REMARK  125  A    between atoms: _414  and  _417
REMARK  126  A    between atoms: _417  and  _418
REMARK  127  A    between atoms: _418  and  _419
REMARK  128  A    between atoms: _428  and  _429
REMARK  129  A    between atoms: _429  and  _430
REMARK  130  A    between atoms: _429  and  _432
REMARK  131  A    between atoms: _432  and  _433
REMARK  132  A    between atoms: _432  and  _434
REMARK  133  A    between atoms: _433  and  _435
REMARK  134  A    between atoms: _447  and  _448
REMARK  135  A    between atoms: _448  and  _449
REMARK  136  A    between atoms: _448  and  _451
REMARK  137  A    between atoms: _451  and  _452
REMARK  138  A    between atoms: _467  and  _468
REMARK  139  A    between atoms: _468  and  _469
REMARK  140  A    between atoms: _468  and  _471
REMARK  141  A    between atoms: _471  and  _472
REMARK  142  A    between atoms: _472  and  _473
REMARK  143  A    between atoms: _472  and  _474
REMARK  144  A    between atoms: _486  and  _487
REMARK  145  A    between atoms: _487  and  _488
REMARK  146  A    between atoms: _487  and  _490
REMARK  147  A    between atoms: _490  and  _491
REMARK  148  A    between atoms: _491  and  _492
REMARK  149  A    between atoms: _492  and  _493
REMARK  150  A    between atoms: _510  and  _511
REMARK  151  A    between atoms: _511  and  _512
REMARK  152  A    between atoms: _511  and  _514
REMARK  153  A    between atoms: _514  and  _515
REMARK  154  A    between atoms: _515  and  _516
REMARK  155  A    between atoms: _525  and  _526
REMARK  156  A    between atoms: _526  and  _527
REMARK  157  A    between atoms: _526  and  _529
REMARK  158  A    between atoms: _529  and  _530
REMARK  159  A    between atoms: _530  and  _531
REMARK  160  A    between atoms: _530  and  _532
REMARK  161  A    between atoms: _544  and  _545
REMARK  162  A    between atoms: _545  and  _546
REMARK  163  A    between atoms: _545  and  _548
REMARK  164  A    between atoms: _548  and  _549
REMARK  165  A    between atoms: _548  and  _550
REMARK  166  A    between atoms: _549  and  _551
REMARK  167  A    between atoms: _563  and  _564
REMARK  168  A    between atoms: _564  and  _565
REMARK  169  A    between atoms: _564  and  _567
REMARK  170  A    between atoms: _567  and  _568
REMARK  171  A    between atoms: _574  and  _575
REMARK  172  A    between atoms: _575  and  _576
REMARK  173  A    between atoms: _575  and  _578
REMARK  174  A    between atoms: _578  and  _579
REMARK  175  A    between atoms: _588  and  _589
REMARK  176  A    between atoms: _589  and  _590
REMARK  177  A    between atoms: _589  and  _592
REMARK  178  A    between atoms: _592  and  _593
REMARK  179  A    between atoms: _599  and  _600
REMARK  180  A    between atoms: _600  and  _601
REMARK  181  A    between atoms: _600  and  _603
REMARK  182  A    between atoms: _603  and  _604
REMARK  183  A    between atoms: _610  and  _611
REMARK  184  A    between atoms: _611  and  _612
REMARK  185  A    between atoms: _611  and  _614
REMARK  186  A    between atoms: _614  and  _615
REMARK  187  A    between atoms: _622  and  _623
REMARK  188  A    between atoms: _623  and  _624
REMARK  189  A    between atoms: _623  and  _626
REMARK  190  A    between atoms: _632  and  _633
REMARK  191  A    between atoms: _633  and  _634
REMARK  192  A    between atoms: _633  and  _636
REMARK  193  A    between atoms: _636  and  _637
REMARK  194  A    between atoms: _637  and  _638
REMARK  195  A    between atoms: _637  and  _639
REMARK  196  A    between atoms: _651  and  _652
REMARK  197  A    between atoms: _652  and  _653
REMARK  198  A    between atoms: _652  and  _655
REMARK  199  A    between atoms: _655  and  _656
REMARK  200  A    between atoms: _663  and  _664
REMARK  201  A    between atoms: _664  and  _665
REMARK  202  A    between atoms: _664  and  _667
REMARK  203  A    between atoms: _667  and  _668
REMARK  204  A    between atoms: _668  and  _669
REMARK  205  A    between atoms: _669  and  _670
REMARK  206  A    between atoms: _670  and  _671
REMARK  207  A    between atoms: _685  and  _686
REMARK  208  A    between atoms: _686  and  _687
REMARK  209  A    between atoms: _686  and  _689
REMARK  210  A    between atoms: _689  and  _690
REMARK  211  A    between atoms: _689  and  _691
REMARK  212  A    between atoms: _690  and  _692
REMARK  213  A    between atoms: _704  and  _705
REMARK  214  A    between atoms: _705  and  _706
REMARK  215  A    between atoms: _705  and  _708
REMARK  216  A    between atoms: _708  and  _709
REMARK  217  A    between atoms: _709  and  _710
REMARK  218  A    between atoms: _710  and  _711
REMARK  219  A    between atoms: _728  and  _729
REMARK  220  A    between atoms: _729  and  _730
REMARK  221  A    between atoms: _729  and  _732
REMARK  222  A    between atoms: _732  and  _733
REMARK  223  A    between atoms: _738  and  _739
REMARK  224  A    between atoms: _749  and  _750
REMARK  225  A    between atoms: _750  and  _751
REMARK  226  A    between atoms: _750  and  _753
REMARK  227  A    between atoms: _753  and  _754
REMARK  228  A    between atoms: _754  and  _755
REMARK  229  A    between atoms: _764  and  _765
REMARK  230  A    between atoms: _765  and  _766
REMARK  231  A    between atoms: _765  and  _768
REMARK  232  A    between atoms: _772  and  _773
REMARK  233  A    between atoms: _773  and  _774
REMARK  234  A    between atoms: _773  and  _776
REMARK  235  A    between atoms: _776  and  _777
REMARK  236  A    between atoms: _777  and  _778
REMARK  237  A    between atoms: _777  and  _779
REMARK  238  A    between atoms: _791  and  _792
REMARK  239  A    between atoms: _792  and  _793
REMARK  240  A    between atoms: _792  and  _795
REMARK  241  A    between atoms: _795  and  _796
REMARK  242  A    between atoms: _795  and  _797
REMARK  243  A    between atoms: _805  and  _806
REMARK  244  A    between atoms: _806  and  _807
REMARK  245  A    between atoms: _806  and  _809
REMARK  246  A    between atoms: _809  and  _810
REMARK  247  A    between atoms: _818  and  _819
REMARK  248  A    between atoms: _831  and  _832
REMARK  249  A    between atoms: _832  and  _833
REMARK  250  A    between atoms: _832  and  _835
REMARK  251  A    between atoms: _835  and  _836
REMARK  252  A    between atoms: _842  and  _843
REMARK  253  A    between atoms: _843  and  _844
REMARK  254  A    between atoms: _843  and  _846
REMARK  255  A    between atoms: _846  and  _847
REMARK  256  A    between atoms: _847  and  _848
REMARK  257  A    between atoms: _848  and  _849
REMARK  258  A    between atoms: _849  and  _850
REMARK  259  A    between atoms: _864  and  _865
REMARK  260  A    between atoms: _865  and  _866
REMARK  261  A    between atoms: _865  and  _868
REMARK  262  A    between atoms: _868  and  _869
REMARK  263  A    between atoms: _869  and  _870
REMARK  264  A    between atoms: _869  and  _871
REMARK  265  A    between atoms: _883  and  _884
REMARK  266  A    between atoms: _884  and  _885
REMARK  267  A    between atoms: _884  and  _887
REMARK  268  A    between atoms: _887  and  _888
REMARK  269  A    between atoms: _895  and  _896
REMARK  270  A    between atoms: _896  and  _897
REMARK  271  A    between atoms: _896  and  _899
REMARK  272  A    between atoms: _899  and  _900
REMARK  273  A    between atoms: _906  and  _907
REMARK  274  A    between atoms: _907  and  _908
REMARK  275  A    between atoms: _913  and  _914
REMARK  276  A    between atoms: _914  and  _915
REMARK  277  A    between atoms: _914  and  _917
REMARK  278  A    between atoms: _917  and  _918
REMARK  279  A    between atoms: _918  and  _919
REMARK  280  A    between atoms: _919  and  _920
REMARK  281  A    between atoms: _920  and  _921
REMARK  282  A    between atoms: _935  and  _936
REMARK  283  A    between atoms: _936  and  _937
REMARK  284  A    between atoms: _936  and  _939
REMARK  285  A    between atoms: _939  and  _940
REMARK  286  A    between atoms: _940  and  _941
REMARK  287  A    between atoms: _950  and  _951
REMARK  288  A    between atoms: _951  and  _952
REMARK  289  A    between atoms: _951  and  _954
REMARK  290  A    between atoms: _954  and  _955
REMARK  291  A    between atoms: _955  and  _956
REMARK  292  A    between atoms: _955  and  _957
REMARK  293  A    between atoms: _969  and  _970
REMARK  294  A    between atoms: _970  and  _971
REMARK  295  A    between atoms: _970  and  _973
REMARK  296  A    between atoms: _973  and  _974
REMARK  297  A    between atoms: _986  and  _987
REMARK  298  A    between atoms: _987  and  _988
REMARK  299  A    between atoms: _987  and  _990
REMARK  300  A    between atoms: _990  and  _991
REMARK  301  A    between atoms: _990  and  _992
REMARK  302  A    between atoms: _991  and  _993
REMARK  303  A    between atoms: _1005  and  _1006
REMARK  304  A    between atoms: _1006  and  _1007
REMARK  305  A    between atoms: _1006  and  _1009
REMARK  306  A    between atoms: _1009  and  _1010
REMARK  307  A    between atoms: _1019  and  _1020
REMARK  308  A    between atoms: _1020  and  _1021
REMARK  309  A    between atoms: _1020  and  _1023
REMARK  310  A    between atoms: _1023  and  _1024
REMARK  311  A    between atoms: _1024  and  _1025
REMARK  312  A    between atoms: _1024  and  _1026
REMARK  313  A    between atoms: _1038  and  _1039
REMARK  314  A    between atoms: _1039  and  _1040
REMARK  315  A    between atoms: _1039  and  _1042
REMARK  316  A    between atoms: _1042  and  _1043
REMARK  317  A    between atoms: _1042  and  _1044
REMARK  318  A    between atoms: _1043  and  _1045
REMARK  319  A    between atoms: _1058  and  _1059
REMARK  320  A    between atoms: _1071  and  _1072
REMARK  321  A    between atoms: _1072  and  _1073
REMARK  322  A    between atoms: _1072  and  _1075
REMARK  323  A    between atoms: _1075  and  _1076
REMARK  324  A    between atoms: _1085  and  _1086
REMARK  325  A    between atoms: _1086  and  _1087
REMARK  326  A    between atoms: _1086  and  _1089
REMARK  327  A    between atoms: _1089  and  _1090
REMARK  328  A    between atoms: _1090  and  _1091
REMARK  329  A    between atoms: _1091  and  _1092
REMARK  330  A    between atoms: _1092  and  _1093
REMARK  331  A    between atoms: _1107  and  _1108
REMARK  332  A    between atoms: _1108  and  _1109
REMARK  333  A    between atoms: _1108  and  _1111
REMARK  334  A    between atoms: _1111  and  _1112
REMARK  335  A    between atoms: _1112  and  _1113
REMARK  336  A    between atoms: _1124  and  _1125
REMARK  337  A    between atoms: _1125  and  _1126
REMARK  338  A    between atoms: _1125  and  _1128
REMARK  339  A    between atoms: _1128  and  _1129
REMARK  340  A    between atoms: _1136  and  _1137
REMARK  341  A    between atoms: _1137  and  _1138
REMARK  342  A    between atoms: _1137  and  _1140
REMARK  343  A    between atoms: _1140  and  _1141
REMARK  344  A    between atoms: _1141  and  _1142
REMARK  345  A    between atoms: _1142  and  _1143
REMARK  346  A    between atoms: _1160  and  _1161
REMARK  347  A    between atoms: _1161  and  _1162
REMARK  348  A    between atoms: _1161  and  _1164
REMARK  349  A    between atoms: _1164  and  _1165
REMARK  350  A    between atoms: _1164  and  _1166
REMARK  351  A    between atoms: _1174  and  _1175
REMARK  352  A    between atoms: _1175  and  _1176
REMARK  353  A    between atoms: _1175  and  _1178
REMARK  354  A    between atoms: _1178  and  _1179
REMARK  355  A    between atoms: _1179  and  _1180
REMARK  356  A    between atoms: _1179  and  _1181
REMARK  357  A    between atoms: _1193  and  _1194
REMARK  358  A    between atoms: _1194  and  _1195
REMARK  359  A    between atoms: _1194  and  _1197
REMARK  360  A    between atoms: _1197  and  _1198
REMARK  361  A    between atoms: _1197  and  _1199
REMARK  362  A    between atoms: _1207  and  _1208
REMARK  363  A    between atoms: _1208  and  _1209
REMARK  364  A    between atoms: _1208  and  _1211
REMARK  365  A    between atoms: _1211  and  _1212
REMARK  366  A    between atoms: _1211  and  _1213
REMARK  367  A    between atoms: _1212  and  _1214
REMARK  368  A    between atoms: _1226  and  _1227
REMARK  369  A    between atoms: _1227  and  _1228
REMARK  370  A    between atoms: _1227  and  _1230
REMARK  371  A    between atoms: _1230  and  _1231
REMARK  372  A    between atoms: _1230  and  _1232
REMARK  373  A    between atoms: _1242  and  _1243
REMARK  374  A    between atoms: _1243  and  _1244
REMARK  375  A    between atoms: _1243  and  _1246
REMARK  376  A    between atoms: _1246  and  _1247
REMARK  377  A    between atoms: _1254  and  _1255
REMARK  378  A    between atoms: _1255  and  _1256
REMARK  379  A    between atoms: _1255  and  _1258
REMARK  380  A    between atoms: _1258  and  _1259
REMARK  381  A    between atoms: _1258  and  _1260
REMARK  382  A    between atoms: _1268  and  _1269
REMARK  383  A    between atoms: _1269  and  _1270
REMARK  384  A    between atoms: _1275  and  _1276
REMARK  385  A    between atoms: _1276  and  _1277
REMARK  386  A    between atoms: _1276  and  _1279
REMARK  387  A    between atoms: _1279  and  _1280
REMARK  388  A    between atoms: _1279  and  _1281
REMARK  389  A    between atoms: _1280  and  _1282
REMARK  390  A    between atoms: _1294  and  _1295
REMARK  391  A    between atoms: _1295  and  _1296
REMARK  392  A    between atoms: _1301  and  _1302
REMARK  393  A    between atoms: _1302  and  _1303
REMARK  394  A    between atoms: _1302  and  _1305
REMARK  395  A    between atoms: _1305  and  _1306
REMARK  396  A    between atoms: _1306  and  _1307
REMARK  397  A    between atoms: _1307  and  _1308
REMARK  398  A    between atoms: _1318  and  _1319
REMARK  399  A    between atoms: _1319  and  _1320
REMARK  400  A    between atoms: _1319  and  _1322
REMARK  401  A    between atoms: _1322  and  _1323
REMARK  402  A    between atoms: _1322  and  _1324
REMARK  403  A    between atoms: _1332  and  _1333
REMARK  404  A    between atoms: _1333  and  _1334
REMARK  405  A    between atoms: _1333  and  _1336
REMARK  406  A    between atoms: _1336  and  _1337
REMARK  407  A    between atoms: _1337  and  _1338
REMARK  408  A    between atoms: _1338  and  _1339
REMARK  409  A    between atoms: _1339  and  _1340
REMARK  410  A    between atoms: _1354  and  _1355
REMARK  411  A    between atoms: _1355  and  _1356
REMARK  412  A    between atoms: _1355  and  _1358
REMARK  413  A    between atoms: _1364  and  _1365
REMARK  414  A    between atoms: _1365  and  _1366
REMARK  415  A    between atoms: _1365  and  _1368
REMARK  416  A    between atoms: _1368  and  _1369
REMARK  417  A    between atoms: _1376  and  _1377
REMARK  418  A    between atoms: _1377  and  _1378
REMARK  419  A    between atoms: _1377  and  _1380
REMARK  420  A    between atoms: _1380  and  _1381
REMARK  421  A    between atoms: _1381  and  _1382
REMARK  422  A    between atoms: _1381  and  _1383
REMARK  423  A    between atoms: _1395  and  _1396
REMARK  424  A    between atoms: _1396  and  _1399
REMARK  425  A    between atoms: _1399  and  _1400
REMARK  426  A    between atoms: _1399  and  _1401
REMARK  427  A    between atoms: _1400  and  _1402
REMARK  428  A    between atoms: _1422  and  _1425
REMARK  429  A    between atoms: _1424  and  _1428
REMARK  430  A    between atoms: _1425  and  _1427
REMARK  431  A    between atoms: _1443  and  _1444
REMARK  432  A    between atoms: _1443  and  _1446
REMARK  433  A    between atoms: _1446  and  _1447
REMARK  434  A    between atoms: _1457  and  _1458
REMARK  435  A    between atoms: _1458  and  _1459
REMARK  436  A    between atoms: _1458  and  _1461
REMARK  437  A    between atoms: _1461  and  _1462
REMARK  438  A    between atoms: _1462  and  _1463
REMARK  439  A    between atoms: _1462  and  _1464
REMARK  440  A    between atoms: _1476  and  _1477
REMARK  441  A    between atoms: _1477  and  _1478
REMARK  442  A    between atoms: _1483  and  _1484
REMARK  443  A    between atoms: _1484  and  _1485
REMARK  444  A    between atoms: _1484  and  _1487
REMARK  445  A    between atoms: _1487  and  _1488
REMARK  446  A    between atoms: _1487  and  _1489
REMARK  447  A    between atoms: _1497  and  _1498
REMARK  448  A    between atoms: _1498  and  _1499
REMARK  449  A    between atoms: _1498  and  _1501
REMARK  450  A    between atoms: _1501  and  _1502
REMARK  451  A    between atoms: _1501  and  _1503
REMARK  452  A    between atoms: _1502  and  _1504
REMARK  453  A    between atoms: _1516  and  _1517
REMARK  454  A    between atoms: _1517  and  _1518
REMARK  455  A    between atoms: _1517  and  _1520
REMARK  456  A    between atoms: _1526  and  _1527
REMARK  457  A    between atoms: _1527  and  _1528
REMARK  458  A    between atoms: _1527  and  _1530
REMARK  459  A    between atoms: _1530  and  _1531
REMARK  460  A    between atoms: _1531  and  _1532
REMARK  461  A    between atoms: _1532  and  _1533
REMARK  462  A    between atoms: _1533  and  _1534
REMARK  463  A    between atoms: _1548  and  _1549
REMARK  464  A    between atoms: _1549  and  _1550
REMARK  465  A    between atoms: _1549  and  _1552
REMARK  466  A    between atoms: _1552  and  _1553
REMARK  467  A    between atoms: _1559  and  _1560
REMARK  468  A    between atoms: _1560  and  _1561
REMARK  469  A    between atoms: _1566  and  _1567
REMARK  470  A    between atoms: _1567  and  _1568
REMARK  471  A    between atoms: _1567  and  _1570
REMARK  472  A    between atoms: _1570  and  _1571
REMARK  473  A    between atoms: _1570  and  _1572
REMARK  474  A    between atoms: _1580  and  _1581
REMARK  475  A    between atoms: _1581  and  _1582
REMARK  476  A    between atoms: _1581  and  _1584
REMARK  477  A    between atoms: _1584  and  _1585
REMARK  478  A    between atoms: _1585  and  _1586
REMARK  479  A    between atoms: _1586  and  _1587
REMARK  480  A    between atoms: _1587  and  _1588
REMARK  481  A    between atoms: _1602  and  _1603
REMARK  482  A    between atoms: _1603  and  _1604
REMARK  483  A    between atoms: _1603  and  _1606
REMARK  484  A    between atoms: _1612  and  _1613
REMARK  485  A    between atoms: _1613  and  _1614
REMARK  486  A    between atoms: _1613  and  _1616
REMARK  487  A    between atoms: _1616  and  _1617
REMARK  488  A    between atoms: _1632  and  _1633
REMARK  489  A    between atoms: _1633  and  _1634
REMARK  490  A    between atoms: _1633  and  _1636
REMARK  491  A    between atoms: _1636  and  _1637
REMARK  492  A    between atoms: _1637  and  _1638
REMARK  493  A    between atoms: _1638  and  _1639
REMARK  494  A    between atoms: _1649  and  _1650
REMARK  495  A    between atoms: _1650  and  _1651
REMARK  496  A    between atoms: _1650  and  _1653
REMARK  497  A    between atoms: _1653  and  _1654
REMARK  498  A    between atoms: _1654  and  _1655
REMARK  499  A    between atoms: _1664  and  _1665
REMARK  500  A    between atoms: _1665  and  _1666
REMARK  501  A    between atoms: _1665  and  _1668
REMARK  502  A    between atoms: _1674  and  _1675
REMARK  503  A    between atoms: _1675  and  _1676
REMARK  504  A    between atoms: _1675  and  _1678
REMARK  505  A    between atoms: _1678  and  _1679
REMARK  506  A    between atoms: _1679  and  _1680
REMARK  507  A    between atoms: _1679  and  _1681
REMARK  508  A    between atoms: _1693  and  _1694
REMARK  509  A    between atoms: _1694  and  _1695
REMARK  510  A    between atoms: _1694  and  _1697
REMARK  511  A    between atoms: _1697  and  _1698
REMARK  512  A    between atoms: _1698  and  _1699
REMARK  513  A    between atoms: _1710  and  _1711
REMARK  514  A    between atoms: _1711  and  _1712
REMARK  515  A    between atoms: _1711  and  _1714
REMARK  516  A    between atoms: _1720  and  _1721
REMARK  517  A    between atoms: _1721  and  _1722
REMARK  518  A    between atoms: _1727  and  _1728
REMARK  519  A    between atoms: _1728  and  _1729
REMARK  520  A    between atoms: _1728  and  _1731
REMARK  521  A    between atoms: _1737  and  _1738
REMARK  522  A    between atoms: _1738  and  _1739
REMARK  523  A    between atoms: _1738  and  _1741
REMARK  524  A    between atoms: _1741  and  _1742
REMARK  525  A    between atoms: _1749  and  _1750
REMARK  526  A    between atoms: _1750  and  _1751
REMARK  527  A    between atoms: _1750  and  _1753
REMARK  528  A    between atoms: _1753  and  _1754
REMARK  529  A    between atoms: _1753  and  _1755
REMARK  530  A    between atoms: _1754  and  _1756
REMARK  531  A    between atoms: _1768  and  _1769
REMARK  532  A    between atoms: _1769  and  _1772
REMARK  533  A    between atoms: _1772  and  _1773
REMARK  534  A    between atoms: _1791  and  _1793
REMARK  535  A    between atoms: _1792  and  _1794
REMARK  536  A    between atoms: _1814  and  _1815
REMARK  537  A    between atoms: _1814  and  _1817
REMARK  538  A    between atoms: _1817  and  _1818
REMARK  539  A    between atoms: _1817  and  _1819
REMARK  540  A    between atoms: _1818  and  _1820
REMARK  541  A    between atoms: _1833  and  _1834
REMARK  542  A    between atoms: _1834  and  _1835
REMARK  543  A    between atoms: _1840  and  _1841
REMARK  544  A    between atoms: _1841  and  _1842
REMARK  545  A    between atoms: _1841  and  _1844
REMARK  546  A    between atoms: _1844  and  _1845
REMARK  547  A    between atoms: _1845  and  _1846
REMARK  548  A    between atoms: _1857  and  _1858
REMARK  549  A    between atoms: _1858  and  _1859
REMARK  550  A    between atoms: _1858  and  _1861
REMARK  551  A    between atoms: _1861  and  _1862
REMARK  552  A    between atoms: _1877  and  _1878
REMARK  553  A    between atoms: _1878  and  _1879
REMARK  554  A    between atoms: _1884  and  _1885
REMARK  555  A    between atoms: _1885  and  _1886
REMARK  556  A    between atoms: _1885  and  _1888
REMARK  557  A    between atoms: _1888  and  _1889
REMARK  558  A    between atoms: _1888  and  _1890
REMARK  559  A    between atoms: _1900  and  _1901
REMARK  560  A    between atoms: _1901  and  _1902
REMARK  561  A    between atoms: _1907  and  _1908
REMARK  562  A    between atoms: _1908  and  _1909
REMARK  563  A    between atoms: _1908  and  _1911
REMARK  564  A    between atoms: _1911  and  _1912
REMARK  565  A    between atoms: _1927  and  _1928
REMARK  566  A    between atoms: _1928  and  _1929
REMARK  567  A    between atoms: _1928  and  _1931
REMARK  568  A    between atoms: _1931  and  _1932
REMARK  569  A    between atoms: _1937  and  _1938
REMARK  570  A    between atoms: _1948  and  _1949
REMARK  571  A    between atoms: _1949  and  _1950
REMARK  572  A    between atoms: _1949  and  _1952
REMARK  573  A    between atoms: _1952  and  _1953
REMARK  574  A    between atoms: _1959  and  _1960
REMARK  575  A    between atoms: _1960  and  _1961
REMARK  576  A    between atoms: _1960  and  _1963
REMARK  577  A    between atoms: _1969  and  _1970
REMARK  578  A    between atoms: _1970  and  _1971
REMARK  579  A    between atoms: _1970  and  _1973
REMARK  580  A    between atoms: _1973  and  _1974
REMARK  581  A    between atoms: _1979  and  _1980
REMARK  582  A    between atoms: _1990  and  _1991
REMARK  583  A    between atoms: _1991  and  _1992
REMARK  584  A    between atoms: _1991  and  _1994
REMARK  585  A    between atoms: _1994  and  _1995
REMARK  586  A    between atoms: _1995  and  _1996
REMARK  587  A    between atoms: _1995  and  _1997
REMARK  588  A    between atoms: _2009  and  _2010
REMARK  589  A    between atoms: _2010  and  _2011
REMARK  590  A    between atoms: _2010  and  _2013
REMARK  591  A    between atoms: _2013  and  _2014
REMARK  592  A    between atoms: _2013  and  _2015
REMARK  593  A    between atoms: _2025  and  _2026
REMARK  594  A    between atoms: _2026  and  _2027
REMARK  595  A    between atoms: _2026  and  _2029
REMARK  596  A    between atoms: _2035  and  _2036
REMARK  597  A    between atoms: _2036  and  _2037
REMARK  598  A    between atoms: _2036  and  _2039
REMARK  599  A    between atoms: _2039  and  _2040
REMARK  600  A    between atoms: _2040  and  _2041
REMARK  601  A    between atoms: _2050  and  _2051
REMARK  602  A    between atoms: _2051  and  _2052
REMARK  603  A    between atoms: _2051  and  _2054
REMARK  604  A    between atoms: _2054  and  _2055
REMARK  605  A    between atoms: _2055  and  _2056
REMARK  606  A    between atoms: _2056  and  _2057
REMARK  607  A    between atoms: _2057  and  _2058
REMARK  608  A    between atoms: _2072  and  _2073
REMARK  609  A    between atoms: _2073  and  _2074
REMARK  610  A    between atoms: _2073  and  _2076
REMARK  611  A    between atoms: _2076  and  _2077
REMARK  612  A    between atoms: _2076  and  _2078
REMARK  613  A    between atoms: _2088  and  _2089
REMARK  614  A    between atoms: _2089  and  _2090
REMARK  615  A    between atoms: _2089  and  _2092
REMARK  616  A    between atoms: _2092  and  _2093
REMARK  617  A    between atoms: _2092  and  _2094
REMARK  618  A    between atoms: _2102  and  _2103
REMARK  619  A    between atoms: _2103  and  _2104
REMARK  620  A    between atoms: _2103  and  _2106
REMARK  621  A    between atoms: _2106  and  _2107
REMARK  622  A    between atoms: _2106  and  _2108
REMARK  623  A    between atoms: _2118  and  _2119
REMARK  624  A    between atoms: _2119  and  _2120
REMARK  625  A    between atoms: _2119  and  _2122
REMARK  626  A    between atoms: _2122  and  _2123
REMARK  627  A    between atoms: _2122  and  _2124
REMARK  628  A    between atoms: _2123  and  _2125
REMARK  629  A    between atoms: _2137  and  _2138
REMARK  630  A    between atoms: _2138  and  _2139
REMARK  631  A    between atoms: _2138  and  _2141
REMARK  632  A    between atoms: _2141  and  _2142
REMARK  633  A    between atoms: _2141  and  _2143
REMARK  634  A    between atoms: _2151  and  _2152
REMARK  635  A    between atoms: _2152  and  _2153
REMARK  636  A    between atoms: _2152  and  _2155
REMARK  637  A    between atoms: _2155  and  _2156
REMARK  638  A    between atoms: _2156  and  _2157
REMARK  639  A    between atoms: _2157  and  _2158
REMARK  640  A    between atoms: _2158  and  _2159
REMARK  641  A    between atoms: _2173  and  _2174
REMARK  642  A    between atoms: _2174  and  _2175
REMARK  643  A    between atoms: _2174  and  _2177
REMARK  644  A    between atoms: _2177  and  _2178
REMARK  645  A    between atoms: _2190  and  _2191
REMARK  646  A    between atoms: _2191  and  _2192
REMARK  647  A    between atoms: _2191  and  _2194
REMARK  648  A    between atoms: _2194  and  _2195
REMARK  649  A    between atoms: _2204  and  _2205
REMARK  650  A    between atoms: _2205  and  _2206
REMARK  651  A    between atoms: _2205  and  _2208
REMARK  652  A    between atoms: _2208  and  _2209
REMARK  653  A    between atoms: _2216  and  _2217
REMARK  654  A    between atoms: _2217  and  _2218
REMARK  655  A    between atoms: _2217  and  _2220
REMARK  656  A    between atoms: _2220  and  _2221
REMARK  657  A    between atoms: _2228  and  _2229
REMARK  658  A    between atoms: _2229  and  _2230
REMARK  659  A    between atoms: _2229  and  _2232
REMARK  660  A    between atoms: _2232  and  _2233
REMARK  661  A    between atoms: _2233  and  _2234
REMARK  662  A    between atoms: _2243  and  _2244
REMARK  663  A    between atoms: _2244  and  _2245
REMARK  664  A    between atoms: _2244  and  _2247
REMARK  665  A    between atoms: _2247  and  _2248
REMARK  666  A    between atoms: _2248  and  _2249
REMARK  667  A    between atoms: _2260  and  _2261
REMARK  668  A    between atoms: _2261  and  _2262
REMARK  669  A    between atoms: _2261  and  _2264
REMARK  670  A    between atoms: _2264  and  _2265
REMARK  671  A    between atoms: _2270  and  _2271
REMARK  672  A    between atoms: _2281  and  _2282
REMARK  673  A    between atoms: _2282  and  _2283
REMARK  674  A    between atoms: _2282  and  _2285
REMARK  675  A    between atoms: _2291  and  _2292
REMARK  676  A    between atoms: _2292  and  _2293
REMARK  677  A    between atoms: _2292  and  _2295
REMARK  678  A    between atoms: _2295  and  _2296
REMARK  679  A    between atoms: _2315  and  _2316
REMARK  680  A    between atoms: _2316  and  _2317
REMARK  681  A    between atoms: _2316  and  _2319
REMARK  682  A    between atoms: _2319  and  _2320
REMARK  683  A    between atoms: _2320  and  _2321
REMARK  684  A    between atoms: _2330  and  _2331
REMARK  685  A    between atoms: _2331  and  _2332
REMARK  686  A    between atoms: _2331  and  _2334
REMARK  687  A    between atoms: _2334  and  _2335
REMARK  688  A    between atoms: _2341  and  _2342
REMARK  689  A    between atoms: _2342  and  _2343
REMARK  690  A    between atoms: _2342  and  _2345
REMARK  691  A    between atoms: _2345  and  _2346
REMARK  692  A    between atoms: _2352  and  _2353
REMARK  693  A    between atoms: _2353  and  _2354
REMARK  694  A    between atoms: _2353  and  _2356
REMARK  695  A    between atoms: _2362  and  _2363
REMARK  696  A    between atoms: _2363  and  _2364
REMARK  697  A    between atoms: _2369  and  _2370
REMARK  698  A    between atoms: _2370  and  _2371
REMARK  699  A    between atoms: _2376  and  _2377
REMARK  700  A    between atoms: _2377  and  _2378
REMARK  701  A    between atoms: _2377  and  _2380
REMARK  702  A    between atoms: _2380  and  _2381
REMARK  703  A    between atoms: _2387  and  _2388
REMARK  704  A    between atoms: _2388  and  _2389
REMARK  705  A    between atoms: _2388  and  _2391
REMARK  706  A    between atoms: _2391  and  _2392
REMARK  707  A    between atoms: _2407  and  _2408
REMARK  708  A    between atoms: _2408  and  _2409
REMARK  709  A    between atoms: _2408  and  _2411
REMARK  710  A    between atoms: _2411  and  _2412
REMARK  711  A    between atoms: _2411  and  _2413
REMARK  712  A    between atoms: _2421  and  _2422
REMARK  713  A    between atoms: _2422  and  _2423
REMARK  714  A    between atoms: _2422  and  _2425
REMARK  715  A    between atoms: _2425  and  _2426
REMARK  716  A    between atoms: _2425  and  _2427
REMARK  717  A    between atoms: _2437  and  _2438
REMARK  718  A    between atoms: _2438  and  _2439
REMARK  719  A    between atoms: _2438  and  _2441
REMARK  720  A    between atoms: _2441  and  _2442
REMARK  721  A    between atoms: _2442  and  _2443
REMARK  722  A    between atoms: _2443  and  _2444
REMARK  723  A    between atoms: _2461  and  _2462
REMARK  724  A    between atoms: _2462  and  _2463
REMARK  725  A    between atoms: _2462  and  _2465
REMARK  726  A    between atoms: _2465  and  _2466
REMARK  727  A    between atoms: _2465  and  _2467
REMARK  728  A    between atoms: _2475  and  _2476
REMARK  729  A    between atoms: _2476  and  _2477
REMARK  730  A    between atoms: _2476  and  _2479
REMARK  731  A    between atoms: _2479  and  _2480
REMARK  732  A    between atoms: _2487  and  _2488
REMARK  733  A    between atoms: _2488  and  _2489
REMARK  734  A    between atoms: _2488  and  _2491
REMARK  735  A    between atoms: _2491  and  _2492
REMARK  736  A    between atoms: _2491  and  _2493
REMARK  737  A    between atoms: _2501  and  _2502
REMARK  738  A    between atoms: _2502  and  _2503
REMARK  739  A    between atoms: _2508  and  _2509
REMARK  740  A    between atoms: _2509  and  _2510
REMARK  741  A    between atoms: _2509  and  _2512
REMARK  742  A    between atoms: _2512  and  _2513
REMARK  743  A    between atoms: _2513  and  _2514
REMARK  744  A    between atoms: _2524  and  _2525
REMARK  745  A    between atoms: _2537  and  _2538
REMARK  746  A    between atoms: _2538  and  _2539
REMARK  747  A    between atoms: _2538  and  _2541
REMARK  748  A    between atoms: _2541  and  _2542
REMARK  749  A    between atoms: _2542  and  _2543
REMARK  750  A    between atoms: _2543  and  _2544
REMARK  751  A    between atoms: _2554  and  _2555
REMARK  752  A    between atoms: _2555  and  _2556
REMARK  753  A    between atoms: _2561  and  _2562
REMARK  754  A    between atoms: _2562  and  _2563
REMARK  755  A    between atoms: _2562  and  _2565
REMARK  756  A    between atoms: _2565  and  _2566
REMARK  757  A    between atoms: _2566  and  _2567
REMARK  758  A    between atoms: _2567  and  _2568
REMARK  759  A    between atoms: _2585  and  _2586
REMARK  760  A    between atoms: _2586  and  _2587
REMARK  761  A    between atoms: _2592  and  _2593
REMARK  762  A    between atoms: _2593  and  _2594
REMARK  763  A    between atoms: _2593  and  _2596
REMARK  764  A    between atoms: _2596  and  _2597
REMARK  765  A    between atoms: _2596  and  _2598
REMARK  766  A    between atoms: _2606  and  _2607
REMARK  767  A    between atoms: _2607  and  _2608
REMARK  768  A    between atoms: _2607  and  _2610
REMARK  769  A    between atoms: _2610  and  _2611
REMARK  770  A    between atoms: _2611  and  _2612
REMARK  771  A    between atoms: _2612  and  _2613
REMARK  772  A    between atoms: _2613  and  _2614
REMARK  773  A    between atoms: _2628  and  _2629
REMARK  774  A    between atoms: _2629  and  _2630
REMARK  775  A    between atoms: _2629  and  _2632
REMARK  776  A    between atoms: _2632  and  _2633
REMARK  777  A    between atoms: _2632  and  _2634
REMARK  778  A    between atoms: _2644  and  _2645
REMARK  779  A    between atoms: _2645  and  _2646
REMARK  780  A    between atoms: _2645  and  _2648
REMARK  781  A    between atoms: _2648  and  _2649
REMARK  782  A    between atoms: _2648  and  _2650
REMARK  783  A    between atoms: _2649  and  _2651
REMARK  784  A    between atoms: _2663  and  _2664
REMARK  785  A    between atoms: _2664  and  _2665
REMARK  786  A    between atoms: _2664  and  _2667
REMARK  787  A    between atoms: _2667  and  _2668
REMARK  788  A    between atoms: _2668  and  _2669
REMARK  789  A    between atoms: _2668  and  _2670
REMARK  790  A    between atoms: _2682  and  _2683
REMARK  791  A    between atoms: _2683  and  _2684
REMARK  792  A    between atoms: _2683  and  _2686
REMARK  793  A    between atoms: _2686  and  _2687
REMARK  794  A    between atoms: _2699  and  _2700
REMARK  795  A    between atoms: _2700  and  _2701
REMARK  796  A    between atoms: _2700  and  _2703
REMARK  797  A    between atoms: _2703  and  _2704
REMARK  798  A    between atoms: _2704  and  _2705
REMARK  799  A    between atoms: _2704  and  _2706
REMARK  800  A    between atoms: _2718  and  _2719
REMARK  801  A    between atoms: _2719  and  _2720
REMARK  802  A    between atoms: _2719  and  _2722
REMARK  803  A    between atoms: _2722  and  _2723
REMARK  804  A    between atoms: _2723  and  _2724
REMARK  805  A    between atoms: _2724  and  _2725
REMARK  806  A    between atoms: _2725  and  _2726
REMARK  807  A    between atoms: _2740  and  _2741
REMARK  808  A    between atoms: _2741  and  _2742
REMARK  809  A    between atoms: _2741  and  _2744
REMARK  810  A    between atoms: _2744  and  _2745
REMARK  811  A    between atoms: _2745  and  _2746
REMARK  812  A    between atoms: _2755  and  _2756
REMARK  813  A    between atoms: _2756  and  _2757
REMARK  814  A    between atoms: _2756  and  _2759
REMARK  815  A    between atoms: _2759  and  _2760
REMARK  816  A    between atoms: _2767  and  _2768
REMARK  817  A    between atoms: _2768  and  _2769
REMARK  818  A    between atoms: _2768  and  _2771
REMARK  819  A    between atoms: _2771  and  _2772
REMARK  820  A    between atoms: _2772  and  _2773
REMARK  821  A    between atoms: _2784  and  _2785
REMARK  822  A    between atoms: _2785  and  _2786
REMARK  823  A    between atoms: _2785  and  _2788
REMARK  824  A    between atoms: _2788  and  _2789
REMARK  825  A    between atoms: _2788  and  _2790
REMARK  826  A    between atoms: _2798  and  _2799
REMARK  827  A    between atoms: _2799  and  _2800
REMARK  828  A    between atoms: _2799  and  _2802
REMARK  829  A    between atoms: _2802  and  _2803
REMARK  830  A    between atoms: _2803  and  _2804
REMARK  831  A    between atoms: _2813  and  _2814
REMARK  832  A    between atoms: _2814  and  _2815
REMARK  833  A    between atoms: _2814  and  _2817
REMARK  834  A    between atoms: _2817  and  _2818
REMARK  835  A    between atoms: _2823  and  _2824
REMARK  836  A    between atoms: _2834  and  _2835
REMARK  837  A    between atoms: _2835  and  _2838
REMARK  838  A    between atoms: _2838  and  _2839
REMARK  839  A    between atoms: _2839  and  _2840
REMARK  840  A    between atoms: _2839  and  _2841
REMARK  841  A    between atoms: _2884  and  _2885
REMARK  842  A    between atoms: _2884  and  _2887
REMARK  843  A    between atoms: _2887  and  _2888
REMARK  844  A    between atoms: _2888  and  _2889
REMARK  845  A    between atoms: _2899  and  _2900
REMARK  846  A    between atoms: _2900  and  _2901
REMARK  847  A    between atoms: _2900  and  _2903
REMARK  848  A    between atoms: _2903  and  _2904
REMARK  849  A    between atoms: _2904  and  _2905
REMARK  850  A    between atoms: _2905  and  _2906
REMARK  851  A    between atoms: _2923  and  _2924
REMARK  852  A    between atoms: _2924  and  _2925
REMARK  853  A    between atoms: _2924  and  _2927
REMARK  854  A    between atoms: _2927  and  _2928
REMARK  855  A    between atoms: _2928  and  _2929
REMARK  856  A    between atoms: _2929  and  _2930
REMARK  857  A    between atoms: _2947  and  _2948
REMARK  858  A    between atoms: _2948  and  _2949
REMARK  859  A    between atoms: _2948  and  _2951
REMARK  860  A    between atoms: _2951  and  _2952
REMARK  861  A    between atoms: _2951  and  _2953
REMARK  862  A    between atoms: _2952  and  _2954
REMARK  863  A    between atoms: _2966  and  _2967
REMARK  864  A    between atoms: _2967  and  _2968
REMARK  865  A    between atoms: _2967  and  _2970
REMARK  866  A    between atoms: _2970  and  _2971
REMARK  867  A    between atoms: _2971  and  _2972
REMARK  868  A    between atoms: _2972  and  _2973
REMARK  869  A    between atoms: _2973  and  _2974
REMARK  870  A    between atoms: _2988  and  _2989
REMARK  871  A    between atoms: _2989  and  _2990
REMARK  872  A    between atoms: _2989  and  _2992
REMARK  873  A    between atoms: _2992  and  _2993
REMARK  874  A    between atoms: _2993  and  _2994
REMARK  875  A    between atoms: _3003  and  _3004
REMARK  876  A    between atoms: _3004  and  _3005
REMARK  877  A    between atoms: _3004  and  _3007
REMARK  878  A    between atoms: _3007  and  _3008
REMARK  879  A    between atoms: _3007  and  _3009
REMARK  880  A    between atoms: _3008  and  _3010
REMARK  881  A    between atoms: _3022  and  _3023
REMARK  882  A    between atoms: _3023  and  _3024
REMARK  883  A    between atoms: _3023  and  _3026
REMARK  884  A    between atoms: _3026  and  _3027
REMARK  885  A    between atoms: _3026  and  _3028
REMARK  886  A    between atoms: _3038  and  _3039
REMARK  887  A    between atoms: _3039  and  _3040
REMARK  888  A    between atoms: _3039  and  _3042
REMARK  889  A    between atoms: _3042  and  _3043
REMARK  890  A    between atoms: _3043  and  _3044
REMARK  891  A    between atoms: _3044  and  _3045
REMARK  892  A    between atoms: _3045  and  _3046
REMARK  893  A    between atoms: _3060  and  _3061
REMARK  894  A    between atoms: _3061  and  _3062
REMARK  895  A    between atoms: _3061  and  _3064
REMARK  896  A    between atoms: _3064  and  _3065
REMARK  897  A    between atoms: _3065  and  _3066
REMARK  898  A    between atoms: _3066  and  _3067
REMARK  899  A    between atoms: _3067  and  _3068
REMARK  900  A    between atoms: _3082  and  _3083
REMARK  901  A    between atoms: _3083  and  _3084
REMARK  902  A    between atoms: _3083  and  _3086
REMARK  903  A    between atoms: _3086  and  _3087
REMARK  904  A    between atoms: _3099  and  _3100
REMARK  905  A    between atoms: _3100  and  _3101
REMARK  906  A    between atoms: _3100  and  _3103
REMARK  907  A    between atoms: _3103  and  _3104
REMARK  908  A    between atoms: _3110  and  _3111
REMARK  909  A    between atoms: _3111  and  _3112
REMARK  910  A    between atoms: _3111  and  _3114
REMARK  911  A    between atoms: _3114  and  _3115
REMARK  912  A    between atoms: _3115  and  _3116
REMARK  913  A    between atoms: _3127  and  _3128
REMARK  914  A    between atoms: _3128  and  _3129
REMARK  915  A    between atoms: _3128  and  _3131
REMARK  916  A    between atoms: _3131  and  _3132
REMARK  917  A    between atoms: _3147  and  _3148
REMARK  918  A    between atoms: _3148  and  _3149
REMARK  919  A    between atoms: _3148  and  _3151
REMARK  920  A    between atoms: _3151  and  _3152
REMARK  921  A    between atoms: _3151  and  _3153
REMARK  922  A    between atoms: _3152  and  _3154
REMARK  923  A    between atoms: _3166  and  _3167
REMARK  924  A    between atoms: _3167  and  _3168
REMARK  925  A    between atoms: _3173  and  _3174
REMARK  926  A    between atoms: _3174  and  _3175
REMARK  927  A    between atoms: _3174  and  _3177
REMARK  928  A    between atoms: _3177  and  _3178
REMARK  929  A    between atoms: _3183  and  _3184
REMARK  930  A    between atoms: _3195  and  _3196
REMARK  931  A    between atoms: _3208  and  _3209
REMARK  932  A    between atoms: _3209  and  _3210
REMARK  933  A    between atoms: _3209  and  _3212
REMARK  934  A    between atoms: _3212  and  _3213
REMARK  935  A    between atoms: _3212  and  _3214
REMARK  936  A    between atoms: _3213  and  _3215
REMARK  937  A    between atoms: _3227  and  _3228
REMARK  938  A    between atoms: _3228  and  _3229
REMARK  939  A    between atoms: _3228  and  _3231
REMARK  940  A    between atoms: _3231  and  _3232
REMARK  941  A    between atoms: _3231  and  _3233
REMARK  942  A    between atoms: _3241  and  _3242
REMARK  943  A    between atoms: _3242  and  _3243
REMARK  944  A    between atoms: _3242  and  _3245
REMARK  945  A    between atoms: _3245  and  _3246
REMARK  946  A    between atoms: _3246  and  _3247
REMARK  947  A    between atoms: _3246  and  _3248
REMARK  948  A    between atoms: _3260  and  _3261
REMARK  949  A    between atoms: _3261  and  _3262
REMARK  950  A    between atoms: _3261  and  _3264
REMARK  951  A    between atoms: _3264  and  _3265
REMARK  952  A    between atoms: _3280  and  _3281
REMARK  953  A    between atoms: _3281  and  _3282
REMARK  954  A    between atoms: _3281  and  _3284
REMARK  955  A    between atoms: _3284  and  _3285
REMARK  956  A    between atoms: _3284  and  _3286
REMARK  957  A    between atoms: _3296  and  _3297
REMARK  958  A    between atoms: _3297  and  _3298
REMARK  959  A    between atoms: _3297  and  _3300
REMARK  960  A    between atoms: _3300  and  _3301
REMARK  961  A    between atoms: _3301  and  _3302
REMARK                            x       y       z     vdW  Elec       q    Type
REMARK                         _______ _______ _______ _____ _____    ______ ____
ROOT
ATOM      1  C   ALA A  11      15.438  41.116  36.104  0.00  0.00    +0.234 C 
ATOM      2  O   ALA A  11      15.711  41.334  37.290  0.00  0.00    -0.274 OA
ATOM      3  N   PHE A  12      14.608  40.140  35.725  0.00  0.00    -0.302 N 
ATOM      4  H   PHE A  12      14.380  39.913  34.762  0.00  0.00    +0.150 HD
ENDROOT
BRANCH   1   5
ATOM      5  CA  ALA A  11      16.102  41.934  35.000  0.00  0.00    +0.156 C 
ATOM      6  CB  ALA A  11      15.163  43.033  34.526  0.00  0.00    +0.038 C 
BRANCH   5   9
ATOM      7  C   LYS A  10      17.482  40.137  33.987  0.00  0.00    +0.234 C 
ATOM      8  O   LYS A  10      18.011  39.851  35.067  0.00  0.00    -0.274 OA
ATOM      9  N   ALA A  11      16.514  41.081  33.870  0.00  0.00    -0.303 N 
ATOM     10  H   ALA A  11      16.005  41.264  33.012  0.00  0.00    +0.149 HD
BRANCH   7  11
ATOM     11  CA  LYS A  10      17.824  39.312  32.741  0.00  0.00    +0.159 C 
BRANCH  11  14
ATOM     12  C   THR A   9      15.682  38.071  32.653  0.00  0.00    +0.236 C 
ATOM     13  O   THR A   9      15.763  37.661  33.809  0.00  0.00    -0.274 OA
ATOM     14  N   LYS A  10      16.593  38.854  32.088  0.00  0.00    -0.302 N 
ATOM     15  H   LYS A  10      16.498  39.204  31.140  0.00  0.00    +0.150 HD
BRANCH  12  16
ATOM     16  CA  THR A   9      14.437  37.749  31.792  0.00  0.00    +0.187 C 
BRANCH  16  19
ATOM     17  C   GLY A   8      13.401  39.993  31.946  0.00  0.00    +0.231 C 
ATOM     18  O   GLY A   8      13.411  39.969  33.179  0.00  0.00    -0.274 OA
ATOM     19  N   THR A   9      13.884  38.984  31.200  0.00  0.00    -0.301 N 
ATOM     20  H   THR A   9      13.919  38.995  30.186  0.00  0.00    +0.150 HD
BRANCH  17  21
ATOM     21  CA  GLY A   8      12.856  41.210  31.217  0.00  0.00    +0.200 C 
BRANCH  21  24
ATOM     22  C   SER A   7      14.976  41.977  30.255  0.00  0.00    +0.236 C 
ATOM     23  O   SER A   7      15.533  42.070  31.340  0.00  0.00    -0.274 OA
ATOM     24  N   GLY A   8      13.707  41.600  30.104  0.00  0.00    -0.305 N 
ATOM     25  H   GLY A   8      13.230  41.548  29.210  0.00  0.00    +0.149 HD
BRANCH  22  26
ATOM     26  CA  SER A   7      15.772  42.263  28.979  0.00  0.00    +0.184 C 
BRANCH  26  29
ATOM     27  C   LYS A   6      15.844  39.972  28.095  0.00  0.00    +0.234 C 
ATOM     28  O   LYS A   6      16.337  39.536  29.140  0.00  0.00    -0.274 OA
ATOM     29  N   SER A   7      15.521  41.269  27.932  0.00  0.00    -0.301 N 
ATOM     30  H   SER A   7      15.085  41.640  27.093  0.00  0.00    +0.150 HD
BRANCH  27  31
ATOM     31  CA  LYS A   6      15.613  38.998  26.922  0.00  0.00    +0.159 C 
BRANCH  31  34
ATOM     32  C   ALA A   5      13.174  38.762  27.216  0.00  0.00    +0.234 C 
ATOM     33  O   ALA A   5      13.271  38.653  28.449  0.00  0.00    -0.274 OA
ATOM     34  N   LYS A   6      14.243  38.950  26.414  0.00  0.00    -0.302 N 
ATOM     35  H   LYS A   6      14.194  39.056  25.406  0.00  0.00    +0.150 HD
BRANCH  32  36
ATOM     36  CA  ALA A   5      11.799  38.598  26.558  0.00  0.00    +0.156 C 
ATOM     37  CB  ALA A   5      11.361  37.149  26.700  0.00  0.00    +0.038 C 
BRANCH  36  40
ATOM     38  C   ILE A   4      11.719  40.268  24.709  0.00  0.00    +0.234 C 
ATOM     39  O   ILE A   4      11.761  41.232  25.466  0.00  0.00    -0.274 OA
ATOM     40  N   ALA A   5      11.750  38.989  25.134  0.00  0.00    -0.303 N 
ATOM     41  H   ALA A   5      11.729  38.189  24.511  0.00  0.00    +0.149 HD
BRANCH  38  42
ATOM     42  CA  ILE A   4      11.652  40.529  23.196  0.00  0.00    +0.162 C 
BRANCH  42  45
ATOM     43  C   THR A   3      13.520  39.135  22.481  0.00  0.00    +0.236 C 
ATOM     44  O   THR A   3      14.302  39.760  23.188  0.00  0.00    -0.274 OA
ATOM     45  N   ILE A   4      12.207  39.426  22.408  0.00  0.00    -0.302 N 
ATOM     46  H   ILE A   4      11.544  38.932  21.819  0.00  0.00    +0.150 HD
BRANCH  43  47
ATOM     47  CA  THR A   3      14.045  37.991  21.635  0.00  0.00    +0.187 C 
BRANCH  47  50
ATOM     48  C   GLY A   2      13.156  36.163  23.050  0.00  0.00    +0.231 C 
ATOM     49  O   GLY A   2      13.754  36.565  24.051  0.00  0.00    -0.274 OA
ATOM     50  N   THR A   3      13.233  36.791  21.847  0.00  0.00    -0.301 N 
ATOM     51  H   THR A   3      12.749  36.476  21.012  0.00  0.00    +0.150 HD
BRANCH  48  52
ATOM     52  CA  GLY A   2      12.247  34.947  23.149  0.00  0.00    +0.200 C 
BRANCH  52  55
ATOM     53  C   LEU A   1      10.139  36.051  22.571  0.00  0.00    +0.234 C 
ATOM     54  O   LEU A   1      10.258  36.889  23.459  0.00  0.00    -0.274 OA
ATOM     55  N   GLY A   2      11.030  35.084  22.352  0.00  0.00    -0.305 N 
ATOM     56  H   GLY A   2      10.935  34.366  21.641  0.00  0.00    +0.149 HD
BRANCH  53  57
ATOM     57  CA  LEU A   1       8.957  36.161  21.588  0.00  0.00    +0.159 C 
BRANCH  57  59
ATOM     58  C   UNK A   0      10.121  36.891  19.586  0.00  0.00    +0.218 C 
ATOM     59  N   LEU A   1       9.401  35.959  20.201  0.00  0.00    -0.304 N 
ATOM     60  H   LEU A   1       9.132  35.071  19.791  0.00  0.00    +0.149 HD
ATOM     61  O   UNK A   0      10.504  37.907  20.156  0.00  0.00    -0.275 OA
BRANCH  58  62
ATOM     62  C   UNK A   0      10.631  36.675  18.155  0.00  0.00    +0.096 C 
BRANCH  62  63
ATOM     63  C   UNK A   0       9.645  37.162  17.092  0.00  0.00    +0.109 C 
BRANCH  63  64
ATOM     64  C   UNK A   0      10.352  37.285  15.744  0.00  0.00    +0.211 C 
ATOM     65  O   UNK A   0      11.591  37.360  15.639  0.00  0.00    -0.276 OA
ATOM     66  N   UNK A   0       9.621  37.206  14.687  0.00  0.00    -0.329 N 
ATOM     67  H   UNK A   0       8.618  37.068  14.770  0.00  0.00    +0.145 HD
ATOM     68  H   UNK A   0      10.044  37.284  13.768  0.00  0.00    +0.145 HD
ENDBRANCH  63  64
ENDBRANCH  62  63
ENDBRANCH  58  62
ENDBRANCH  57  59
BRANCH  57  69
ATOM     69  CB  LEU A   1       7.809  35.215  21.964  0.00  0.00    +0.034 C 
BRANCH  69  70
ATOM     70  CG  LEU A   1       6.536  35.415  21.128  0.00  0.00    -0.015 C 
ATOM     71  CD2 LEU A   1       5.514  34.401  21.483  0.00  0.00    +0.007 C 
ATOM     72  CD1 LEU A   1       5.969  36.821  21.289  0.00  0.00    +0.007 C 
ENDBRANCH  69  70
ENDBRANCH  57  69
ENDBRANCH  53  57
ENDBRANCH  52  55
ENDBRANCH  48  52
ENDBRANCH  47  50
BRANCH  47  73
ATOM     73  CB  THR A   3      14.106  38.404  20.142  0.00  0.00    +0.141 C 
ATOM     74  CG2 THR A   3      14.784  39.784  19.941  0.00  0.00    +0.040 C 
BRANCH  73  75
ATOM     75  OG1 THR A   3      14.832  37.421  19.410  0.00  0.00    -0.390 OA
ATOM     76  HG1 THR A   3      14.305  36.585  19.325  0.00  0.00    +0.210 HD
ENDBRANCH  73  75
ENDBRANCH  47  73
ENDBRANCH  43  47
ENDBRANCH  42  45
BRANCH  42  77
ATOM     77  CB  ILE A   4      10.228  40.968  22.764  0.00  0.00    +0.015 C 
ATOM     78  CG2 ILE A   4      10.223  41.468  21.305  0.00  0.00    +0.010 C 
BRANCH  77  79
ATOM     79  CG1 ILE A   4       9.197  39.868  22.975  0.00  0.00    +0.002 C 
ATOM     80  CD1 ILE A   4       7.716  40.389  22.990  0.00  0.00    +0.004 C 
ENDBRANCH  77  79
ENDBRANCH  42  77
ENDBRANCH  38  42
ENDBRANCH  36  40
ENDBRANCH  32  36
ENDBRANCH  31  34
BRANCH  31  81
ATOM     81  CB  LYS A   6      16.599  39.293  25.773  0.00  0.00    +0.032 C 
BRANCH  81  82
ATOM     82  CG  LYS A   6      18.066  39.330  26.211  0.00  0.00    +0.000 C 
BRANCH  82  83
ATOM     83  CD  LYS A   6      19.036  39.307  25.038  0.00  0.00    -0.019 C 
BRANCH  83  84
ATOM     84  CE  LYS A   6      20.457  39.078  25.505  0.00  0.00    -0.086 C 
BRANCH  84  85
ATOM     85  NZ  LYS A   6      21.418  39.064  24.373  0.00  0.00    +0.378 N 
ATOM     86  HZ1 LYS A   6      22.355  38.880  24.715  0.00  0.00    -0.090 HD
ATOM     87  HZ2 LYS A   6      21.410  39.963  23.900  0.00  0.00    -0.090 HD
ATOM     88  HZ3 LYS A   6      21.161  38.340  23.709  0.00  0.00    -0.090 HD
ENDBRANCH  84  85
ENDBRANCH  83  84
ENDBRANCH  82  83
ENDBRANCH  81  82
ENDBRANCH  31  81
ENDBRANCH  27  31
ENDBRANCH  26  29
BRANCH  26  89
ATOM     89  CB  SER A   7      15.503  43.679  28.477  0.00  0.00    +0.187 C 
BRANCH  89  90
ATOM     90  OG  SER A   7      14.107  43.876  28.354  0.00  0.00    -0.393 OA
ATOM     91  H   SER A   7      13.779  43.512  27.490  0.00  0.00    +0.209 HD
ENDBRANCH  89  90
ENDBRANCH  26  89
ENDBRANCH  22  26
ENDBRANCH  21  24
ENDBRANCH  17  21
ENDBRANCH  16  19
BRANCH  16  92
ATOM     92  CB  THR A   9      14.766  36.713  30.697  0.00  0.00    +0.141 C 
ATOM     93  CG2 THR A   9      15.292  35.437  31.268  0.00  0.00    +0.040 C 
BRANCH  92  94
ATOM     94  OG1 THR A   9      13.583  36.427  29.964  0.00  0.00    -0.390 OA
ATOM     95  HG1 THR A   9      13.725  36.639  29.005  0.00  0.00    +0.210 HD
ENDBRANCH  92  94
ENDBRANCH  16  92
ENDBRANCH  12  16
ENDBRANCH  11  14
BRANCH  11  96
ATOM     96  CB  LYS A  10      18.651  40.117  31.708  0.00  0.00    +0.032 C 
BRANCH  96  97
ATOM     97  CG  LYS A  10      20.018  40.613  32.187  0.00  0.00    +0.000 C 
BRANCH  97  98
ATOM     98  CD  LYS A  10      20.803  41.274  31.037  0.00  0.00    -0.019 C 
BRANCH  98  99
ATOM     99  CE  LYS A  10      21.945  42.154  31.509  0.00  0.00    -0.086 C 
BRANCH  99 100
ATOM    100  NZ  LYS A  10      23.104  41.361  32.005  0.00  0.00    +0.378 N 
ATOM    101  HZ1 LYS A  10      22.826  40.797  32.802  0.00  0.00    -0.090 HD
ATOM    102  HZ2 LYS A  10      23.854  41.983  32.288  0.00  0.00    -0.090 HD
ATOM    103  HZ3 LYS A  10      23.444  40.748  31.271  0.00  0.00    -0.090 HD
ENDBRANCH  99 100
ENDBRANCH  98  99
ENDBRANCH  97  98
ENDBRANCH  96  97
ENDBRANCH  11  96
ENDBRANCH   7  11
ENDBRANCH   5   9
ENDBRANCH   1   5
BRANCH   3 104
ATOM    104  CA  PHE A  12      13.949  39.310  36.715  0.00  0.00    +0.163 C 
BRANCH 104 105
ATOM    105  C   PHE A  12      14.973  38.482  37.503  0.00  0.00    +0.234 C 
ATOM    106  O   PHE A  12      14.866  38.377  38.713  0.00  0.00    -0.274 OA
ATOM    107  N   MET A  13      15.956  37.919  36.829  0.00  0.00    -0.302 N 
ATOM    108  H   MET A  13      16.082  38.007  35.826  0.00  0.00    +0.150 HD
BRANCH 107 109
ATOM    109  CA  MET A  13      16.967  37.103  37.507  0.00  0.00    +0.160 C 
BRANCH 109 110
ATOM    110  C   MET A  13      17.835  37.940  38.467  0.00  0.00    +0.234 C 
ATOM    111  O   MET A  13      18.141  37.471  39.566  0.00  0.00    -0.274 OA
ATOM    112  N   GLU A  14      18.128  39.195  38.101  0.00  0.00    -0.302 N 
ATOM    113  H   GLU A  14      17.916  39.573  37.183  0.00  0.00    +0.150 HD
BRANCH 112 114
ATOM    114  CA  GLU A  14      18.828  40.141  38.982  0.00  0.00    +0.159 C 
BRANCH 114 115
ATOM    115  C   GLU A  14      17.942  40.450  40.190  0.00  0.00    +0.234 C 
ATOM    116  O   GLU A  14      18.431  40.449  41.322  0.00  0.00    -0.274 OA
ATOM    117  N   ALA A  15      16.632  40.690  39.956  0.00  0.00    -0.303 N 
ATOM    118  H   ALA A  15      16.217  40.718  39.030  0.00  0.00    +0.149 HD
BRANCH 117 119
ATOM    119  CA  ALA A  15      15.690  40.942  41.046  0.00  0.00    +0.156 C 
ATOM    120  CB  ALA A  15      14.292  41.217  40.508  0.00  0.00    +0.038 C 
BRANCH 119 121
ATOM    121  C   ALA A  15      15.670  39.745  42.002  0.00  0.00    +0.234 C 
ATOM    122  O   ALA A  15      15.749  39.952  43.216  0.00  0.00    -0.274 OA
ATOM    123  N   LEU A  16      15.638  38.494  41.472  0.00  0.00    -0.302 N 
ATOM    124  H   LEU A  16      15.624  38.295  40.477  0.00  0.00    +0.150 HD
BRANCH 123 125
ATOM    125  CA  LEU A  16      15.643  37.291  42.321  0.00  0.00    +0.159 C 
BRANCH 125 126
ATOM    126  C   LEU A  16      16.934  37.207  43.160  0.00  0.00    +0.234 C 
ATOM    127  O   LEU A  16      16.856  36.860  44.340  0.00  0.00    -0.274 OA
ATOM    128  N   GLN A  17      18.105  37.543  42.554  0.00  0.00    -0.302 N 
ATOM    129  H   GLN A  17      18.159  37.775  41.568  0.00  0.00    +0.150 HD
BRANCH 128 130
ATOM    130  CA  GLN A  17      19.408  37.588  43.256  0.00  0.00    +0.159 C 
BRANCH 130 131
ATOM    131  C   GLN A  17      19.395  38.639  44.390  0.00  0.00    +0.234 C 
ATOM    132  O   GLN A  17      20.021  38.422  45.431  0.00  0.00    -0.274 OA
ATOM    133  N   ALA A  18      18.644  39.748  44.195  0.00  0.00    -0.303 N 
ATOM    134  H   ALA A  18      18.157  39.938  43.326  0.00  0.00    +0.149 HD
BRANCH 133 135
ATOM    135  CA  ALA A  18      18.466  40.827  45.170  0.00  0.00    +0.156 C 
ATOM    136  CB  ALA A  18      18.168  42.133  44.436  0.00  0.00    +0.038 C 
BRANCH 135 137
ATOM    137  C   ALA A  18      17.337  40.548  46.211  0.00  0.00    +0.233 C 
ATOM    138  O   ALA A  18      16.915  41.483  46.903  0.00  0.00    -0.274 OA
ATOM    139  N   GLY A  19      16.858  39.301  46.310  0.00  0.00    -0.305 N 
ATOM    140  H   GLY A  19      17.145  38.510  45.744  0.00  0.00    +0.149 HD
BRANCH 139 141
ATOM    141  CA  GLY A  19      15.830  38.915  47.273  0.00  0.00    +0.200 C 
BRANCH 141 142
ATOM    142  C   GLY A  19      14.376  38.992  46.836  0.00  0.00    +0.231 C 
ATOM    143  O   GLY A  19      13.496  38.714  47.658  0.00  0.00    -0.274 OA
ATOM    144  N   ALA A  20      14.091  39.329  45.542  0.00  0.00    -0.303 N 
ATOM    145  H   ALA A  20      14.792  39.555  44.845  0.00  0.00    +0.149 HD
BRANCH 144 146
ATOM    146  CA  ALA A  20      12.711  39.397  45.019  0.00  0.00    +0.156 C 
ATOM    147  CB  ALA A  20      12.709  39.880  43.574  0.00  0.00    +0.038 C 
BRANCH 146 148
ATOM    148  C   ALA A  20      12.022  38.041  45.080  0.00  0.00    +0.234 C 
ATOM    149  N   ASP A  21      10.704  38.054  45.088  0.00  0.00    -0.302 N 
ATOM    150  H   ASP A  21      10.156  38.908  45.044  0.00  0.00    +0.150 HD
ATOM    151  O   ALA A  20      12.676  37.008  45.085  0.00  0.00    -0.274 OA
BRANCH 149 152
ATOM    152  CA  ASP A  21       9.894  36.843  45.140  0.00  0.00    +0.170 C 
BRANCH 152 153
ATOM    153  C   ASP A  21       9.591  36.324  43.706  0.00  0.00    +0.234 C 
ATOM    154  N   ILE A  22       9.485  34.995  43.532  0.00  0.00    -0.302 N 
ATOM    155  H   ILE A  22       9.621  34.321  44.279  0.00  0.00    +0.150 HD
ATOM    156  O   ASP A  21       9.398  37.122  42.795  0.00  0.00    -0.274 OA
BRANCH 154 157
ATOM    157  CA  ILE A  22       9.170  34.403  42.220  0.00  0.00    +0.162 C 
BRANCH 157 158
ATOM    158  C   ILE A  22       7.805  34.912  41.681  0.00  0.00    +0.234 C 
ATOM    159  N   GLY A  23       6.857  35.290  42.576  0.00  0.00    -0.307 N 
ATOM    160  H   GLY A  23       6.966  35.199  43.581  0.00  0.00    +0.149 HD
ATOM    161  O   ILE A  22       7.671  35.076  40.465  0.00  0.00    -0.274 OA
BRANCH 159 162
ATOM    162  CA  GLY A  23       5.546  35.842  42.195  0.00  0.00    +0.121 C 
BRANCH 162 163
ATOM    163  C   GLY A  23       4.641  36.031  43.411  0.00  0.00    +0.180 C 
BRANCH 163 164
ATOM    164  O   GLY A  23       5.099  37.100  44.222  0.00  0.00    -0.393 OA
ATOM    165  H   GLY A  23       5.355  36.755  45.117  0.00  0.00    +0.209 HD
ENDBRANCH 163 164
ENDBRANCH 162 163
ENDBRANCH 159 162
ENDBRANCH 157 158
BRANCH 157 166
ATOM    166  CB  ILE A  22       9.298  32.843  42.237  0.00  0.00    +0.015 C 
ATOM    167  CG2 ILE A  22       8.505  32.174  41.109  0.00  0.00    +0.010 C 
BRANCH 166 168
ATOM    168  CG1 ILE A  22      10.790  32.452  42.134  0.00  0.00    +0.002 C 
ATOM    169  CD1 ILE A  22      11.136  31.012  42.568  0.00  0.00    +0.004 C 
ENDBRANCH 166 168
ENDBRANCH 157 166
ENDBRANCH 154 157
ENDBRANCH 152 153
BRANCH 152 170
ATOM    170  CB  ASP A  21       8.577  37.153  45.862  0.00  0.00    +0.156 C 
BRANCH 170 171
ATOM    171  CG  ASP A  21       7.839  35.910  46.250  0.00  0.00    +0.358 C 
ATOM    172  OD2 ASP A  21       8.281  35.235  47.200  0.00  0.00    -0.246 OA
ATOM    173  OD1 ASP A  21       6.839  35.585  45.580  0.00  0.00    -0.246 OA
ENDBRANCH 170 171
ENDBRANCH 152 170
ENDBRANCH 149 152
ENDBRANCH 146 148
ENDBRANCH 144 146
ENDBRANCH 141 142
ENDBRANCH 139 141
ENDBRANCH 135 137
ENDBRANCH 133 135
ENDBRANCH 130 131
BRANCH 130 174
ATOM    174  CB  GLN A  17      20.566  37.892  42.278  0.00  0.00    +0.041 C 
BRANCH 174 175
ATOM    175  CG  GLN A  17      21.327  36.652  41.825  0.00  0.00    +0.098 C 
BRANCH 175 176
ATOM    176  CD  GLN A  17      22.298  36.170  42.882  0.00  0.00    +0.211 C 
ATOM    177  OE1 GLN A  17      22.065  35.165  43.568  0.00  0.00    -0.276 OA
ATOM    178  NE2 GLN A  17      23.400  36.894  43.052  0.00  0.00    -0.329 N 
ATOM    179 HE21 GLN A  17      24.085  36.620  43.748  0.00  0.00    +0.145 HD
ATOM    180 HE22 GLN A  17      23.554  37.726  42.490  0.00  0.00    +0.145 HD
ENDBRANCH 175 176
ENDBRANCH 174 175
ENDBRANCH 130 174
ENDBRANCH 128 130
ENDBRANCH 125 126
BRANCH 125 181
ATOM    181  CB  LEU A  16      15.489  36.012  41.500  0.00  0.00    +0.034 C 
BRANCH 181 182
ATOM    182  CG  LEU A  16      14.138  35.785  40.815  0.00  0.00    -0.015 C 
ATOM    183  CD2 LEU A  16      13.017  35.654  41.822  0.00  0.00    +0.007 C 
ATOM    184  CD1 LEU A  16      14.214  34.574  39.901  0.00  0.00    +0.007 C 
ENDBRANCH 181 182
ENDBRANCH 125 181
ENDBRANCH 123 125
ENDBRANCH 119 121
ENDBRANCH 117 119
ENDBRANCH 114 115
BRANCH 114 185
ATOM    185  CB  GLU A  14      19.171  41.447  38.229  0.00  0.00    +0.043 C 
BRANCH 185 186
ATOM    186  CG  GLU A  14      20.321  41.273  37.247  0.00  0.00    +0.127 C 
BRANCH 186 187
ATOM    187  CD  GLU A  14      20.562  42.415  36.276  0.00  0.00    +0.356 C 
ATOM    188  OE2 GLU A  14      19.884  43.463  36.394  0.00  0.00    -0.246 OA
ATOM    189  OE1 GLU A  14      21.437  42.257  35.393  0.00  0.00    -0.246 OA
ENDBRANCH 186 187
ENDBRANCH 185 186
ENDBRANCH 114 185
ENDBRANCH 112 114
ENDBRANCH 109 110
BRANCH 109 190
ATOM    190  CB  MET A  13      17.775  36.305  36.504  0.00  0.00    +0.042 C 
BRANCH 190 191
ATOM    191  CG  MET A  13      16.955  35.134  35.977  0.00  0.00    +0.071 C 
BRANCH 191 192
ATOM    192  SD  MET A  13      17.863  33.944  35.047  0.00  0.00    -0.164 S 
ATOM    193  CE  MET A  13      18.474  34.978  33.695  0.00  0.00    +0.084 C 
ENDBRANCH 191 192
ENDBRANCH 190 191
ENDBRANCH 109 190
ENDBRANCH 107 109
ENDBRANCH 104 105
BRANCH 104 194
ATOM    194  CB  PHE A  12      12.915  38.391  36.057  0.00  0.00    +0.067 C 
BRANCH 194 195
ATOM    195  CG  PHE A  12      12.216  37.470  37.018  0.00  0.00    -0.045 A 
ATOM    196  CD2 PHE A  12      11.540  37.972  38.125  0.00  0.00    +0.004 A 
ATOM    197  CE2 PHE A  12      10.876  37.113  39.006  0.00  0.00    +0.000 A 
ATOM    198  CZ  PHE A  12      10.832  35.766  38.743  0.00  0.00    +0.000 A 
ATOM    199  CE1 PHE A  12      11.500  35.256  37.659  0.00  0.00    +0.000 A 
ATOM    200  CD1 PHE A  12      12.192  36.105  36.797  0.00  0.00    +0.004 A 
ENDBRANCH 194 195
ENDBRANCH 104 194
ENDBRANCH   3 104
TORSDOF 87
REMARK  Name = /Users/mlugowska/PhD/ML_residence_time_prediction/protein_files/5J20_protein.pdb
REMARK  961 active torsions:
REMARK  status: ('A' for Active; 'I' for Inactive)
REMARK    1  A    between atoms: _2  and  _3
REMARK    2  A    between atoms: _2  and  _5
REMARK    3  A    between atoms: _10  and  _11
REMARK    4  A    between atoms: _11  and  _12
REMARK    5  A    between atoms: _11  and  _14
REMARK    6  A    between atoms: _14  and  _15
REMARK    7  A    between atoms: _14  and  _16
REMARK    8  A    between atoms: _26  and  _27
REMARK    9  A    between atoms: _27  and  _28
REMARK   10  A    between atoms: _27  and  _30
REMARK   11  A    between atoms: _30  and  _31
REMARK   12  A    between atoms: _31  and  _32
REMARK   13  A    between atoms: _41  and  _42
REMARK   14  A    between atoms: _42  and  _43
REMARK   15  A    between atoms: _42  and  _45
REMARK   16  A    between atoms: _45  and  _46
REMARK   17  A    between atoms: _45  and  _47
REMARK   18  A    between atoms: _55  and  _56
REMARK   19  A    between atoms: _56  and  _57
REMARK   20  A    between atoms: _56  and  _59
REMARK   21  A    between atoms: _59  and  _60
REMARK   22  A    between atoms: _75  and  _76
REMARK   23  A    between atoms: _76  and  _77
REMARK   24  A    between atoms: _76  and  _79
REMARK   25  A    between atoms: _85  and  _86
REMARK   26  A    between atoms: _86  and  _87
REMARK   27  A    between atoms: _86  and  _89
REMARK   28  A    between atoms: _89  and  _90
REMARK   29  A    between atoms: _105  and  _106
REMARK   30  A    between atoms: _106  and  _107
REMARK   31  A    between atoms: _106  and  _109
REMARK   32  A    between atoms: _109  and  _110
REMARK   33  A    between atoms: _110  and  _111
REMARK   34  A    between atoms: _122  and  _123
REMARK   35  A    between atoms: _123  and  _124
REMARK   36  A    between atoms: _123  and  _126
REMARK   37  A    between atoms: _132  and  _133
REMARK   38  A    between atoms: _133  and  _134
REMARK   39  A    between atoms: _133  and  _136
REMARK   40  A    between atoms: _136  and  _137
REMARK   41  A    between atoms: _137  and  _138
REMARK   42  A    between atoms: _147  and  _148
REMARK   43  A    between atoms: _148  and  _149
REMARK   44  A    between atoms: _148  and  _151
REMARK   45  A    between atoms: _151  and  _152
REMARK   46  A    between atoms: _151  and  _153
REMARK   47  A    between atoms: _152  and  _154
REMARK   48  A    between atoms: _166  and  _167
REMARK   49  A    between atoms: _167  and  _168
REMARK   50  A    between atoms: _167  and  _170
REMARK   51  A    between atoms: _176  and  _177
REMARK   52  A    between atoms: _177  and  _178
REMARK   53  A    between atoms: _177  and  _180
REMARK   54  A    between atoms: _180  and  _181
REMARK   55  A    between atoms: _181  and  _182
REMARK   56  A    between atoms: _193  and  _194
REMARK   57  A    between atoms: _194  and  _195
REMARK   58  A    between atoms: _194  and  _197
REMARK   59  A    between atoms: _197  and  _198
REMARK   60  A    between atoms: _198  and  _199
REMARK   61  A    between atoms: _198  and  _200
REMARK   62  A    between atoms: _212  and  _213
REMARK   63  A    between atoms: _213  and  _214
REMARK   64  A    between atoms: _213  and  _216
REMARK   65  A    between atoms: _216  and  _217
REMARK   66  A    between atoms: _217  and  _218
REMARK   67  A    between atoms: _218  and  _219
REMARK   68  A    between atoms: _229  and  _230
REMARK   69  A    between atoms: _230  and  _231
REMARK   70  A    between atoms: _230  and  _233
REMARK   71  A    between atoms: _233  and  _234
REMARK   72  A    between atoms: _240  and  _241
REMARK   73  A    between atoms: _241  and  _242
REMARK   74  A    between atoms: _241  and  _244
REMARK   75  A    between atoms: _244  and  _245
REMARK   76  A    between atoms: _245  and  _246
REMARK   77  A    between atoms: _245  and  _247
REMARK   78  A    between atoms: _259  and  _260
REMARK   79  A    between atoms: _260  and  _261
REMARK   80  A    between atoms: _260  and  _263
REMARK   81  A    between atoms: _263  and  _264
REMARK   82  A    between atoms: _263  and  _265
REMARK   83  A    between atoms: _264  and  _266
REMARK   84  A    between atoms: _278  and  _279
REMARK   85  A    between atoms: _279  and  _280
REMARK   86  A    between atoms: _279  and  _282
REMARK   87  A    between atoms: _282  and  _283
REMARK   88  A    between atoms: _282  and  _284
REMARK   89  A    between atoms: _283  and  _285
REMARK   90  A    between atoms: _297  and  _298
REMARK   91  A    between atoms: _298  and  _299
REMARK   92  A    between atoms: _298  and  _301
REMARK   93  A    between atoms: _301  and  _302
REMARK   94  A    between atoms: _311  and  _312
REMARK   95  A    between atoms: _312  and  _313
REMARK   96  A    between atoms: _312  and  _315
REMARK   97  A    between atoms: _315  and  _316
REMARK   98  A    between atoms: _315  and  _317
REMARK   99  A    between atoms: _325  and  _326
REMARK  100  A    between atoms: _326  and  _327
REMARK  101  A    between atoms: _326  and  _329
REMARK  102  A    between atoms: _329  and  _330
REMARK  103  A    between atoms: _345  and  _346
REMARK  104  A    between atoms: _346  and  _347
REMARK  105  A    between atoms: _346  and  _349
REMARK  106  A    between atoms: _349  and  _350
REMARK  107  A    between atoms: _355  and  _356
REMARK  108  A    between atoms: _366  and  _367
REMARK  109  A    between atoms: _367  and  _368
REMARK  110  A    between atoms: _367  and  _370
REMARK  111  A    between atoms: _370  and  _371
REMARK  112  A    between atoms: _377  and  _378
REMARK  113  A    between atoms: _378  and  _379
REMARK  114  A    between atoms: _378  and  _381
REMARK  115  A    between atoms: _381  and  _382
REMARK  116  A    between atoms: _391  and  _392
REMARK  117  A    between atoms: _392  and  _393
REMARK  118  A    between atoms: _392  and  _395
REMARK  119  A    between atoms: _395  and  _396
REMARK  120  A    between atoms: _396  and  _397
REMARK  121  A    between atoms: _397  and  _398
REMARK  122  A    between atoms: _398  and  _399
REMARK  123  A    between atoms: _413  and  _414
REMARK  124  A    between atoms: _414  and  _415
REMARK  125  A    between atoms: _414  and  _417
REMARK  126  A    between atoms: _417  and  _418
REMARK  127  A    between atoms: _418  and  _419
REMARK  128  A    between atoms: _428  and  _429
REMARK  129  A    between atoms: _429  and  _430
REMARK  130  A    between atoms: _429  and  _432
REMARK  131  A    between atoms: _432  and  _433
REMARK  132  A    between atoms: _432  and  _434
REMARK  133  A    between atoms: _433  and  _435
REMARK  134  A    between atoms: _447  and  _448
REMARK  135  A    between atoms: _448  and  _449
REMARK  136  A    between atoms: _448  and  _451
REMARK  137  A    between atoms: _451  and  _452
REMARK  138  A    between atoms: _467  and  _468
REMARK  139  A    between atoms: _468  and  _469
REMARK  140  A    between atoms: _468  and  _471
REMARK  141  A    between atoms: _471  and  _472
REMARK  142  A    between atoms: _472  and  _473
REMARK  143  A    between atoms: _472  and  _474
REMARK  144  A    between atoms: _486  and  _487
REMARK  145  A    between atoms: _487  and  _488
REMARK  146  A    between atoms: _487  and  _490
REMARK  147  A    between atoms: _490  and  _491
REMARK  148  A    between atoms: _491  and  _492
REMARK  149  A    between atoms: _492  and  _493
REMARK  150  A    between atoms: _510  and  _511
REMARK  151  A    between atoms: _511  and  _512
REMARK  152  A    between atoms: _511  and  _514
REMARK  153  A    between atoms: _514  and  _515
REMARK  154  A    between atoms: _515  and  _516
REMARK  155  A    between atoms: _525  and  _526
REMARK  156  A    between atoms: _526  and  _527
REMARK  157  A    between atoms: _526  and  _529
REMARK  158  A    between atoms: _529  and  _530
REMARK  159  A    between atoms: _530  and  _531
REMARK  160  A    between atoms: _530  and  _532
REMARK  161  A    between atoms: _544  and  _545
REMARK  162  A    between atoms: _545  and  _546
REMARK  163  A    between atoms: _545  and  _548
REMARK  164  A    between atoms: _548  and  _549
REMARK  165  A    between atoms: _548  and  _550
REMARK  166  A    between atoms: _549  and  _551
REMARK  167  A    between atoms: _563  and  _564
REMARK  168  A    between atoms: _564  and  _565
REMARK  169  A    between atoms: _564  and  _567
REMARK  170  A    between atoms: _567  and  _568
REMARK  171  A    between atoms: _574  and  _575
REMARK  172  A    between atoms: _575  and  _576
REMARK  173  A    between atoms: _575  and  _578
REMARK  174  A    between atoms: _578  and  _579
REMARK  175  A    between atoms: _588  and  _589
REMARK  176  A    between atoms: _589  and  _590
REMARK  177  A    between atoms: _589  and  _592
REMARK  178  A    between atoms: _592  and  _593
REMARK  179  A    between atoms: _599  and  _600
REMARK  180  A    between atoms: _600  and  _601
REMARK  181  A    between atoms: _600  and  _603
REMARK  182  A    between atoms: _603  and  _604
REMARK  183  A    between atoms: _610  and  _611
REMARK  184  A    between atoms: _611  and  _612
REMARK  185  A    between atoms: _611  and  _614
REMARK  186  A    between atoms: _614  and  _615
REMARK  187  A    between atoms: _622  and  _623
REMARK  188  A    between atoms: _623  and  _624
REMARK  189  A    between atoms: _623  and  _626
REMARK  190  A    between atoms: _632  and  _633
REMARK  191  A    between atoms: _633  and  _634
REMARK  192  A    between atoms: _633  and  _636
REMARK  193  A    between atoms: _636  and  _637
REMARK  194  A    between atoms: _637  and  _638
REMARK  195  A    between atoms: _637  and  _639
REMARK  196  A    between atoms: _651  and  _652
REMARK  197  A    between atoms: _652  and  _653
REMARK  198  A    between atoms: _652  and  _655
REMARK  199  A    between atoms: _655  and  _656
REMARK  200  A    between atoms: _663  and  _664
REMARK  201  A    between atoms: _664  and  _665
REMARK  202  A    between atoms: _664  and  _667
REMARK  203  A    between atoms: _667  and  _668
REMARK  204  A    between atoms: _668  and  _669
REMARK  205  A    between atoms: _669  and  _670
REMARK  206  A    between atoms: _670  and  _671
REMARK  207  A    between atoms: _685  and  _686
REMARK  208  A    between atoms: _686  and  _687
REMARK  209  A    between atoms: _686  and  _689
REMARK  210  A    between atoms: _689  and  _690
REMARK  211  A    between atoms: _689  and  _691
REMARK  212  A    between atoms: _690  and  _692
REMARK  213  A    between atoms: _704  and  _705
REMARK  214  A    between atoms: _705  and  _706
REMARK  215  A    between atoms: _705  and  _708
REMARK  216  A    between atoms: _708  and  _709
REMARK  217  A    between atoms: _709  and  _710
REMARK  218  A    between atoms: _710  and  _711
REMARK  219  A    between atoms: _728  and  _729
REMARK  220  A    between atoms: _729  and  _730
REMARK  221  A    between atoms: _729  and  _732
REMARK  222  A    between atoms: _732  and  _733
REMARK  223  A    between atoms: _738  and  _739
REMARK  224  A    between atoms: _749  and  _750
REMARK  225  A    between atoms: _750  and  _751
REMARK  226  A    between atoms: _750  and  _753
REMARK  227  A    between atoms: _753  and  _754
REMARK  228  A    between atoms: _754  and  _755
REMARK  229  A    between atoms: _764  and  _765
REMARK  230  A    between atoms: _765  and  _766
REMARK  231  A    between atoms: _765  and  _768
REMARK  232  A    between atoms: _772  and  _773
REMARK  233  A    between atoms: _773  and  _774
REMARK  234  A    between atoms: _773  and  _776
REMARK  235  A    between atoms: _776  and  _777
REMARK  236  A    between atoms: _777  and  _778
REMARK  237  A    between atoms: _777  and  _779
REMARK  238  A    between atoms: _791  and  _792
REMARK  239  A    between atoms: _792  and  _793
REMARK  240  A    between atoms: _792  and  _795
REMARK  241  A    between atoms: _795  and  _796
REMARK  242  A    between atoms: _795  and  _797
REMARK  243  A    between atoms: _805  and  _806
REMARK  244  A    between atoms: _806  and  _807
REMARK  245  A    between atoms: _806  and  _809
REMARK  246  A    between atoms: _809  and  _810
REMARK  247  A    between atoms: _818  and  _819
REMARK  248  A    between atoms: _831  and  _832
REMARK  249  A    between atoms: _832  and  _833
REMARK  250  A    between atoms: _832  and  _835
REMARK  251  A    between atoms: _835  and  _836
REMARK  252  A    between atoms: _842  and  _843
REMARK  253  A    between atoms: _843  and  _844
REMARK  254  A    between atoms: _843  and  _846
REMARK  255  A    between atoms: _846  and  _847
REMARK  256  A    between atoms: _847  and  _848
REMARK  257  A    between atoms: _848  and  _849
REMARK  258  A    between atoms: _849  and  _850
REMARK  259  A    between atoms: _864  and  _865
REMARK  260  A    between atoms: _865  and  _866
REMARK  261  A    between atoms: _865  and  _868
REMARK  262  A    between atoms: _868  and  _869
REMARK  263  A    between atoms: _869  and  _870
REMARK  264  A    between atoms: _869  and  _871
REMARK  265  A    between atoms: _883  and  _884
REMARK  266  A    between atoms: _884  and  _885
REMARK  267  A    between atoms: _884  and  _887
REMARK  268  A    between atoms: _887  and  _888
REMARK  269  A    between atoms: _895  and  _896
REMARK  270  A    between atoms: _896  and  _897
REMARK  271  A    between atoms: _896  and  _899
REMARK  272  A    between atoms: _899  and  _900
REMARK  273  A    between atoms: _906  and  _907
REMARK  274  A    between atoms: _907  and  _908
REMARK  275  A    between atoms: _913  and  _914
REMARK  276  A    between atoms: _914  and  _915
REMARK  277  A    between atoms: _914  and  _917
REMARK  278  A    between atoms: _917  and  _918
REMARK  279  A    between atoms: _918  and  _919
REMARK  280  A    between atoms: _919  and  _920
REMARK  281  A    between atoms: _920  and  _921
REMARK  282  A    between atoms: _935  and  _936
REMARK  283  A    between atoms: _936  and  _937
REMARK  284  A    between atoms: _936  and  _939
REMARK  285  A    between atoms: _939  and  _940
REMARK  286  A    between atoms: _940  and  _941
REMARK  287  A    between atoms: _950  and  _951
REMARK  288  A    between atoms: _951  and  _952
REMARK  289  A    between atoms: _951  and  _954
REMARK  290  A    between atoms: _954  and  _955
REMARK  291  A    between atoms: _955  and  _956
REMARK  292  A    between atoms: _955  and  _957
REMARK  293  A    between atoms: _969  and  _970
REMARK  294  A    between atoms: _970  and  _971
REMARK  295  A    between atoms: _970  and  _973
REMARK  296  A    between atoms: _973  and  _974
REMARK  297  A    between atoms: _986  and  _987
REMARK  298  A    between atoms: _987  and  _988
REMARK  299  A    between atoms: _987  and  _990
REMARK  300  A    between atoms: _990  and  _991
REMARK  301  A    between atoms: _990  and  _992
REMARK  302  A    between atoms: _991  and  _993
REMARK  303  A    between atoms: _1005  and  _1006
REMARK  304  A    between atoms: _1006  and  _1007
REMARK  305  A    between atoms: _1006  and  _1009
REMARK  306  A    between atoms: _1009  and  _1010
REMARK  307  A    between atoms: _1019  and  _1020
REMARK  308  A    between atoms: _1020  and  _1021
REMARK  309  A    between atoms: _1020  and  _1023
REMARK  310  A    between atoms: _1023  and  _1024
REMARK  311  A    between atoms: _1024  and  _1025
REMARK  312  A    between atoms: _1024  and  _1026
REMARK  313  A    between atoms: _1038  and  _1039
REMARK  314  A    between atoms: _1039  and  _1040
REMARK  315  A    between atoms: _1039  and  _1042
REMARK  316  A    between atoms: _1042  and  _1043
REMARK  317  A    between atoms: _1042  and  _1044
REMARK  318  A    between atoms: _1043  and  _1045
REMARK  319  A    between atoms: _1058  and  _1059
REMARK  320  A    between atoms: _1071  and  _1072
REMARK  321  A    between atoms: _1072  and  _1073
REMARK  322  A    between atoms: _1072  and  _1075
REMARK  323  A    between atoms: _1075  and  _1076
REMARK  324  A    between atoms: _1085  and  _1086
REMARK  325  A    between atoms: _1086  and  _1087
REMARK  326  A    between atoms: _1086  and  _1089
REMARK  327  A    between atoms: _1089  and  _1090
REMARK  328  A    between atoms: _1090  and  _1091
REMARK  329  A    between atoms: _1091  and  _1092
REMARK  330  A    between atoms: _1092  and  _1093
REMARK  331  A    between atoms: _1107  and  _1108
REMARK  332  A    between atoms: _1108  and  _1109
REMARK  333  A    between atoms: _1108  and  _1111
REMARK  334  A    between atoms: _1111  and  _1112
REMARK  335  A    between atoms: _1112  and  _1113
REMARK  336  A    between atoms: _1124  and  _1125
REMARK  337  A    between atoms: _1125  and  _1126
REMARK  338  A    between atoms: _1125  and  _1128
REMARK  339  A    between atoms: _1128  and  _1129
REMARK  340  A    between atoms: _1136  and  _1137
REMARK  341  A    between atoms: _1137  and  _1138
REMARK  342  A    between atoms: _1137  and  _1140
REMARK  343  A    between atoms: _1140  and  _1141
REMARK  344  A    between atoms: _1141  and  _1142
REMARK  345  A    between atoms: _1142  and  _1143
REMARK  346  A    between atoms: _1160  and  _1161
REMARK  347  A    between atoms: _1161  and  _1162
REMARK  348  A    between atoms: _1161  and  _1164
REMARK  349  A    between atoms: _1164  and  _1165
REMARK  350  A    between atoms: _1164  and  _1166
REMARK  351  A    between atoms: _1174  and  _1175
REMARK  352  A    between atoms: _1175  and  _1176
REMARK  353  A    between atoms: _1175  and  _1178
REMARK  354  A    between atoms: _1178  and  _1179
REMARK  355  A    between atoms: _1179  and  _1180
REMARK  356  A    between atoms: _1179  and  _1181
REMARK  357  A    between atoms: _1193  and  _1194
REMARK  358  A    between atoms: _1194  and  _1195
REMARK  359  A    between atoms: _1194  and  _1197
REMARK  360  A    between atoms: _1197  and  _1198
REMARK  361  A    between atoms: _1197  and  _1199
REMARK  362  A    between atoms: _1207  and  _1208
REMARK  363  A    between atoms: _1208  and  _1209
REMARK  364  A    between atoms: _1208  and  _1211
REMARK  365  A    between atoms: _1211  and  _1212
REMARK  366  A    between atoms: _1211  and  _1213
REMARK  367  A    between atoms: _1212  and  _1214
REMARK  368  A    between atoms: _1226  and  _1227
REMARK  369  A    between atoms: _1227  and  _1228
REMARK  370  A    between atoms: _1227  and  _1230
REMARK  371  A    between atoms: _1230  and  _1231
REMARK  372  A    between atoms: _1230  and  _1232
REMARK  373  A    between atoms: _1242  and  _1243
REMARK  374  A    between atoms: _1243  and  _1244
REMARK  375  A    between atoms: _1243  and  _1246
REMARK  376  A    between atoms: _1246  and  _1247
REMARK  377  A    between atoms: _1254  and  _1255
REMARK  378  A    between atoms: _1255  and  _1256
REMARK  379  A    between atoms: _1255  and  _1258
REMARK  380  A    between atoms: _1258  and  _1259
REMARK  381  A    between atoms: _1258  and  _1260
REMARK  382  A    between atoms: _1268  and  _1269
REMARK  383  A    between atoms: _1269  and  _1270
REMARK  384  A    between atoms: _1275  and  _1276
REMARK  385  A    between atoms: _1276  and  _1277
REMARK  386  A    between atoms: _1276  and  _1279
REMARK  387  A    between atoms: _1279  and  _1280
REMARK  388  A    between atoms: _1279  and  _1281
REMARK  389  A    between atoms: _1280  and  _1282
REMARK  390  A    between atoms: _1294  and  _1295
REMARK  391  A    between atoms: _1295  and  _1296
REMARK  392  A    between atoms: _1301  and  _1302
REMARK  393  A    between atoms: _1302  and  _1303
REMARK  394  A    between atoms: _1302  and  _1305
REMARK  395  A    between atoms: _1305  and  _1306
REMARK  396  A    between atoms: _1306  and  _1307
REMARK  397  A    between atoms: _1307  and  _1308
REMARK  398  A    between atoms: _1318  and  _1319
REMARK  399  A    between atoms: _1319  and  _1320
REMARK  400  A    between atoms: _1319  and  _1322
REMARK  401  A    between atoms: _1322  and  _1323
REMARK  402  A    between atoms: _1322  and  _1324
REMARK  403  A    between atoms: _1332  and  _1333
REMARK  404  A    between atoms: _1333  and  _1334
REMARK  405  A    between atoms: _1333  and  _1336
REMARK  406  A    between atoms: _1336  and  _1337
REMARK  407  A    between atoms: _1337  and  _1338
REMARK  408  A    between atoms: _1338  and  _1339
REMARK  409  A    between atoms: _1339  and  _1340
REMARK  410  A    between atoms: _1354  and  _1355
REMARK  411  A    between atoms: _1355  and  _1356
REMARK  412  A    between atoms: _1355  and  _1358
REMARK  413  A    between atoms: _1364  and  _1365
REMARK  414  A    between atoms: _1365  and  _1366
REMARK  415  A    between atoms: _1365  and  _1368
REMARK  416  A    between atoms: _1368  and  _1369
REMARK  417  A    between atoms: _1376  and  _1377
REMARK  418  A    between atoms: _1377  and  _1378
REMARK  419  A    between atoms: _1377  and  _1380
REMARK  420  A    between atoms: _1380  and  _1381
REMARK  421  A    between atoms: _1381  and  _1382
REMARK  422  A    between atoms: _1381  and  _1383
REMARK  423  A    between atoms: _1395  and  _1396
REMARK  424  A    between atoms: _1396  and  _1399
REMARK  425  A    between atoms: _1399  and  _1400
REMARK  426  A    between atoms: _1399  and  _1401
REMARK  427  A    between atoms: _1400  and  _1402
REMARK  428  A    between atoms: _1422  and  _1425
REMARK  429  A    between atoms: _1424  and  _1428
REMARK  430  A    between atoms: _1425  and  _1427
REMARK  431  A    between atoms: _1443  and  _1444
REMARK  432  A    between atoms: _1443  and  _1446
REMARK  433  A    between atoms: _1446  and  _1447
REMARK  434  A    between atoms: _1457  and  _1458
REMARK  435  A    between atoms: _1458  and  _1459
REMARK  436  A    between atoms: _1458  and  _1461
REMARK  437  A    between atoms: _1461  and  _1462
REMARK  438  A    between atoms: _1462  and  _1463
REMARK  439  A    between atoms: _1462  and  _1464
REMARK  440  A    between atoms: _1476  and  _1477
REMARK  441  A    between atoms: _1477  and  _1478
REMARK  442  A    between atoms: _1483  and  _1484
REMARK  443  A    between atoms: _1484  and  _1485
REMARK  444  A    between atoms: _1484  and  _1487
REMARK  445  A    between atoms: _1487  and  _1488
REMARK  446  A    between atoms: _1487  and  _1489
REMARK  447  A    between atoms: _1497  and  _1498
REMARK  448  A    between atoms: _1498  and  _1499
REMARK  449  A    between atoms: _1498  and  _1501
REMARK  450  A    between atoms: _1501  and  _1502
REMARK  451  A    between atoms: _1501  and  _1503
REMARK  452  A    between atoms: _1502  and  _1504
REMARK  453  A    between atoms: _1516  and  _1517
REMARK  454  A    between atoms: _1517  and  _1518
REMARK  455  A    between atoms: _1517  and  _1520
REMARK  456  A    between atoms: _1526  and  _1527
REMARK  457  A    between atoms: _1527  and  _1528
REMARK  458  A    between atoms: _1527  and  _1530
REMARK  459  A    between atoms: _1530  and  _1531
REMARK  460  A    between atoms: _1531  and  _1532
REMARK  461  A    between atoms: _1532  and  _1533
REMARK  462  A    between atoms: _1533  and  _1534
REMARK  463  A    between atoms: _1548  and  _1549
REMARK  464  A    between atoms: _1549  and  _1550
REMARK  465  A    between atoms: _1549  and  _1552
REMARK  466  A    between atoms: _1552  and  _1553
REMARK  467  A    between atoms: _1559  and  _1560
REMARK  468  A    between atoms: _1560  and  _1561
REMARK  469  A    between atoms: _1566  and  _1567
REMARK  470  A    between atoms: _1567  and  _1568
REMARK  471  A    between atoms: _1567  and  _1570
REMARK  472  A    between atoms: _1570  and  _1571
REMARK  473  A    between atoms: _1570  and  _1572
REMARK  474  A    between atoms: _1580  and  _1581
REMARK  475  A    between atoms: _1581  and  _1582
REMARK  476  A    between atoms: _1581  and  _1584
REMARK  477  A    between atoms: _1584  and  _1585
REMARK  478  A    between atoms: _1585  and  _1586
REMARK  479  A    between atoms: _1586  and  _1587
REMARK  480  A    between atoms: _1587  and  _1588
REMARK  481  A    between atoms: _1602  and  _1603
REMARK  482  A    between atoms: _1603  and  _1604
REMARK  483  A    between atoms: _1603  and  _1606
REMARK  484  A    between atoms: _1612  and  _1613
REMARK  485  A    between atoms: _1613  and  _1614
REMARK  486  A    between atoms: _1613  and  _1616
REMARK  487  A    between atoms: _1616  and  _1617
REMARK  488  A    between atoms: _1632  and  _1633
REMARK  489  A    between atoms: _1633  and  _1634
REMARK  490  A    between atoms: _1633  and  _1636
REMARK  491  A    between atoms: _1636  and  _1637
REMARK  492  A    between atoms: _1637  and  _1638
REMARK  493  A    between atoms: _1638  and  _1639
REMARK  494  A    between atoms: _1649  and  _1650
REMARK  495  A    between atoms: _1650  and  _1651
REMARK  496  A    between atoms: _1650  and  _1653
REMARK  497  A    between atoms: _1653  and  _1654
REMARK  498  A    between atoms: _1654  and  _1655
REMARK  499  A    between atoms: _1664  and  _1665
REMARK  500  A    between atoms: _1665  and  _1666
REMARK  501  A    between atoms: _1665  and  _1668
REMARK  502  A    between atoms: _1674  and  _1675
REMARK  503  A    between atoms: _1675  and  _1676
REMARK  504  A    between atoms: _1675  and  _1678
REMARK  505  A    between atoms: _1678  and  _1679
REMARK  506  A    between atoms: _1679  and  _1680
REMARK  507  A    between atoms: _1679  and  _1681
REMARK  508  A    between atoms: _1693  and  _1694
REMARK  509  A    between atoms: _1694  and  _1695
REMARK  510  A    between atoms: _1694  and  _1697
REMARK  511  A    between atoms: _1697  and  _1698
REMARK  512  A    between atoms: _1698  and  _1699
REMARK  513  A    between atoms: _1710  and  _1711
REMARK  514  A    between atoms: _1711  and  _1712
REMARK  515  A    between atoms: _1711  and  _1714
REMARK  516  A    between atoms: _1720  and  _1721
REMARK  517  A    between atoms: _1721  and  _1722
REMARK  518  A    between atoms: _1727  and  _1728
REMARK  519  A    between atoms: _1728  and  _1729
REMARK  520  A    between atoms: _1728  and  _1731
REMARK  521  A    between atoms: _1737  and  _1738
REMARK  522  A    between atoms: _1738  and  _1739
REMARK  523  A    between atoms: _1738  and  _1741
REMARK  524  A    between atoms: _1741  and  _1742
REMARK  525  A    between atoms: _1749  and  _1750
REMARK  526  A    between atoms: _1750  and  _1751
REMARK  527  A    between atoms: _1750  and  _1753
REMARK  528  A    between atoms: _1753  and  _1754
REMARK  529  A    between atoms: _1753  and  _1755
REMARK  530  A    between atoms: _1754  and  _1756
REMARK  531  A    between atoms: _1768  and  _1769
REMARK  532  A    between atoms: _1769  and  _1772
REMARK  533  A    between atoms: _1772  and  _1773
REMARK  534  A    between atoms: _1791  and  _1793
REMARK  535  A    between atoms: _1792  and  _1794
REMARK  536  A    between atoms: _1814  and  _1815
REMARK  537  A    between atoms: _1814  and  _1817
REMARK  538  A    between atoms: _1817  and  _1818
REMARK  539  A    between atoms: _1817  and  _1819
REMARK  540  A    between atoms: _1818  and  _1820
REMARK  541  A    between atoms: _1833  and  _1834
REMARK  542  A    between atoms: _1834  and  _1835
REMARK  543  A    between atoms: _1840  and  _1841
REMARK  544  A    between atoms: _1841  and  _1842
REMARK  545  A    between atoms: _1841  and  _1844
REMARK  546  A    between atoms: _1844  and  _1845
REMARK  547  A    between atoms: _1845  and  _1846
REMARK  548  A    between atoms: _1857  and  _1858
REMARK  549  A    between atoms: _1858  and  _1859
REMARK  550  A    between atoms: _1858  and  _1861
REMARK  551  A    between atoms: _1861  and  _1862
REMARK  552  A    between atoms: _1877  and  _1878
REMARK  553  A    between atoms: _1878  and  _1879
REMARK  554  A    between atoms: _1884  and  _1885
REMARK  555  A    between atoms: _1885  and  _1886
REMARK  556  A    between atoms: _1885  and  _1888
REMARK  557  A    between atoms: _1888  and  _1889
REMARK  558  A    between atoms: _1888  and  _1890
REMARK  559  A    between atoms: _1900  and  _1901
REMARK  560  A    between atoms: _1901  and  _1902
REMARK  561  A    between atoms: _1907  and  _1908
REMARK  562  A    between atoms: _1908  and  _1909
REMARK  563  A    between atoms: _1908  and  _1911
REMARK  564  A    between atoms: _1911  and  _1912
REMARK  565  A    between atoms: _1927  and  _1928
REMARK  566  A    between atoms: _1928  and  _1929
REMARK  567  A    between atoms: _1928  and  _1931
REMARK  568  A    between atoms: _1931  and  _1932
REMARK  569  A    between atoms: _1937  and  _1938
REMARK  570  A    between atoms: _1948  and  _1949
REMARK  571  A    between atoms: _1949  and  _1950
REMARK  572  A    between atoms: _1949  and  _1952
REMARK  573  A    between atoms: _1952  and  _1953
REMARK  574  A    between atoms: _1959  and  _1960
REMARK  575  A    between atoms: _1960  and  _1961
REMARK  576  A    between atoms: _1960  and  _1963
REMARK  577  A    between atoms: _1969  and  _1970
REMARK  578  A    between atoms: _1970  and  _1971
REMARK  579  A    between atoms: _1970  and  _1973
REMARK  580  A    between atoms: _1973  and  _1974
REMARK  581  A    between atoms: _1979  and  _1980
REMARK  582  A    between atoms: _1990  and  _1991
REMARK  583  A    between atoms: _1991  and  _1992
REMARK  584  A    between atoms: _1991  and  _1994
REMARK  585  A    between atoms: _1994  and  _1995
REMARK  586  A    between atoms: _1995  and  _1996
REMARK  587  A    between atoms: _1995  and  _1997
REMARK  588  A    between atoms: _2009  and  _2010
REMARK  589  A    between atoms: _2010  and  _2011
REMARK  590  A    between atoms: _2010  and  _2013
REMARK  591  A    between atoms: _2013  and  _2014
REMARK  592  A    between atoms: _2013  and  _2015
REMARK  593  A    between atoms: _2025  and  _2026
REMARK  594  A    between atoms: _2026  and  _2027
REMARK  595  A    between atoms: _2026  and  _2029
REMARK  596  A    between atoms: _2035  and  _2036
REMARK  597  A    between atoms: _2036  and  _2037
REMARK  598  A    between atoms: _2036  and  _2039
REMARK  599  A    between atoms: _2039  and  _2040
REMARK  600  A    between atoms: _2040  and  _2041
REMARK  601  A    between atoms: _2050  and  _2051
REMARK  602  A    between atoms: _2051  and  _2052
REMARK  603  A    between atoms: _2051  and  _2054
REMARK  604  A    between atoms: _2054  and  _2055
REMARK  605  A    between atoms: _2055  and  _2056
REMARK  606  A    between atoms: _2056  and  _2057
REMARK  607  A    between atoms: _2057  and  _2058
REMARK  608  A    between atoms: _2072  and  _2073
REMARK  609  A    between atoms: _2073  and  _2074
REMARK  610  A    between atoms: _2073  and  _2076
REMARK  611  A    between atoms: _2076  and  _2077
REMARK  612  A    between atoms: _2076  and  _2078
REMARK  613  A    between atoms: _2088  and  _2089
REMARK  614  A    between atoms: _2089  and  _2090
REMARK  615  A    between atoms: _2089  and  _2092
REMARK  616  A    between atoms: _2092  and  _2093
REMARK  617  A    between atoms: _2092  and  _2094
REMARK  618  A    between atoms: _2102  and  _2103
REMARK  619  A    between atoms: _2103  and  _2104
REMARK  620  A    between atoms: _2103  and  _2106
REMARK  621  A    between atoms: _2106  and  _2107
REMARK  622  A    between atoms: _2106  and  _2108
REMARK  623  A    between atoms: _2118  and  _2119
REMARK  624  A    between atoms: _2119  and  _2120
REMARK  625  A    between atoms: _2119  and  _2122
REMARK  626  A    between atoms: _2122  and  _2123
REMARK  627  A    between atoms: _2122  and  _2124
REMARK  628  A    between atoms: _2123  and  _2125
REMARK  629  A    between atoms: _2137  and  _2138
REMARK  630  A    between atoms: _2138  and  _2139
REMARK  631  A    between atoms: _2138  and  _2141
REMARK  632  A    between atoms: _2141  and  _2142
REMARK  633  A    between atoms: _2141  and  _2143
REMARK  634  A    between atoms: _2151  and  _2152
REMARK  635  A    between atoms: _2152  and  _2153
REMARK  636  A    between atoms: _2152  and  _2155
REMARK  637  A    between atoms: _2155  and  _2156
REMARK  638  A    between atoms: _2156  and  _2157
REMARK  639  A    between atoms: _2157  and  _2158
REMARK  640  A    between atoms: _2158  and  _2159
REMARK  641  A    between atoms: _2173  and  _2174
REMARK  642  A    between atoms: _2174  and  _2175
REMARK  643  A    between atoms: _2174  and  _2177
REMARK  644  A    between atoms: _2177  and  _2178
REMARK  645  A    between atoms: _2190  and  _2191
REMARK  646  A    between atoms: _2191  and  _2192
REMARK  647  A    between atoms: _2191  and  _2194
REMARK  648  A    between atoms: _2194  and  _2195
REMARK  649  A    between atoms: _2204  and  _2205
REMARK  650  A    between atoms: _2205  and  _2206
REMARK  651  A    between atoms: _2205  and  _2208
REMARK  652  A    between atoms: _2208  and  _2209
REMARK  653  A    between atoms: _2216  and  _2217
REMARK  654  A    between atoms: _2217  and  _2218
REMARK  655  A    between atoms: _2217  and  _2220
REMARK  656  A    between atoms: _2220  and  _2221
REMARK  657  A    between atoms: _2228  and  _2229
REMARK  658  A    between atoms: _2229  and  _2230
REMARK  659  A    between atoms: _2229  and  _2232
REMARK  660  A    between atoms: _2232  and  _2233
REMARK  661  A    between atoms: _2233  and  _2234
REMARK  662  A    between atoms: _2243  and  _2244
REMARK  663  A    between atoms: _2244  and  _2245
REMARK  664  A    between atoms: _2244  and  _2247
REMARK  665  A    between atoms: _2247  and  _2248
REMARK  666  A    between atoms: _2248  and  _2249
REMARK  667  A    between atoms: _2260  and  _2261
REMARK  668  A    between atoms: _2261  and  _2262
REMARK  669  A    between atoms: _2261  and  _2264
REMARK  670  A    between atoms: _2264  and  _2265
REMARK  671  A    between atoms: _2270  and  _2271
REMARK  672  A    between atoms: _2281  and  _2282
REMARK  673  A    between atoms: _2282  and  _2283
REMARK  674  A    between atoms: _2282  and  _2285
REMARK  675  A    between atoms: _2291  and  _2292
REMARK  676  A    between atoms: _2292  and  _2293
REMARK  677  A    between atoms: _2292  and  _2295
REMARK  678  A    between atoms: _2295  and  _2296
REMARK  679  A    between atoms: _2315  and  _2316
REMARK  680  A    between atoms: _2316  and  _2317
REMARK  681  A    between atoms: _2316  and  _2319
REMARK  682  A    between atoms: _2319  and  _2320
REMARK  683  A    between atoms: _2320  and  _2321
REMARK  684  A    between atoms: _2330  and  _2331
REMARK  685  A    between atoms: _2331  and  _2332
REMARK  686  A    between atoms: _2331  and  _2334
REMARK  687  A    between atoms: _2334  and  _2335
REMARK  688  A    between atoms: _2341  and  _2342
REMARK  689  A    between atoms: _2342  and  _2343
REMARK  690  A    between atoms: _2342  and  _2345
REMARK  691  A    between atoms: _2345  and  _2346
REMARK  692  A    between atoms: _2352  and  _2353
REMARK  693  A    between atoms: _2353  and  _2354
REMARK  694  A    between atoms: _2353  and  _2356
REMARK  695  A    between atoms: _2362  and  _2363
REMARK  696  A    between atoms: _2363  and  _2364
REMARK  697  A    between atoms: _2369  and  _2370
REMARK  698  A    between atoms: _2370  and  _2371
REMARK  699  A    between atoms: _2376  and  _2377
REMARK  700  A    between atoms: _2377  and  _2378
REMARK  701  A    between atoms: _2377  and  _2380
REMARK  702  A    between atoms: _2380  and  _2381
REMARK  703  A    between atoms: _2387  and  _2388
REMARK  704  A    between atoms: _2388  and  _2389
REMARK  705  A    between atoms: _2388  and  _2391
REMARK  706  A    between atoms: _2391  and  _2392
REMARK  707  A    between atoms: _2407  and  _2408
REMARK  708  A    between atoms: _2408  and  _2409
REMARK  709  A    between atoms: _2408  and  _2411
REMARK  710  A    between atoms: _2411  and  _2412
REMARK  711  A    between atoms: _2411  and  _2413
REMARK  712  A    between atoms: _2421  and  _2422
REMARK  713  A    between atoms: _2422  and  _2423
REMARK  714  A    between atoms: _2422  and  _2425
REMARK  715  A    between atoms: _2425  and  _2426
REMARK  716  A    between atoms: _2425  and  _2427
REMARK  717  A    between atoms: _2437  and  _2438
REMARK  718  A    between atoms: _2438  and  _2439
REMARK  719  A    between atoms: _2438  and  _2441
REMARK  720  A    between atoms: _2441  and  _2442
REMARK  721  A    between atoms: _2442  and  _2443
REMARK  722  A    between atoms: _2443  and  _2444
REMARK  723  A    between atoms: _2461  and  _2462
REMARK  724  A    between atoms: _2462  and  _2463
REMARK  725  A    between atoms: _2462  and  _2465
REMARK  726  A    between atoms: _2465  and  _2466
REMARK  727  A    between atoms: _2465  and  _2467
REMARK  728  A    between atoms: _2475  and  _2476
REMARK  729  A    between atoms: _2476  and  _2477
REMARK  730  A    between atoms: _2476  and  _2479
REMARK  731  A    between atoms: _2479  and  _2480
REMARK  732  A    between atoms: _2487  and  _2488
REMARK  733  A    between atoms: _2488  and  _2489
REMARK  734  A    between atoms: _2488  and  _2491
REMARK  735  A    between atoms: _2491  and  _2492
REMARK  736  A    between atoms: _2491  and  _2493
REMARK  737  A    between atoms: _2501  and  _2502
REMARK  738  A    between atoms: _2502  and  _2503
REMARK  739  A    between atoms: _2508  and  _2509
REMARK  740  A    between atoms: _2509  and  _2510
REMARK  741  A    between atoms: _2509  and  _2512
REMARK  742  A    between atoms: _2512  and  _2513
REMARK  743  A    between atoms: _2513  and  _2514
REMARK  744  A    between atoms: _2524  and  _2525
REMARK  745  A    between atoms: _2537  and  _2538
REMARK  746  A    between atoms: _2538  and  _2539
REMARK  747  A    between atoms: _2538  and  _2541
REMARK  748  A    between atoms: _2541  and  _2542
REMARK  749  A    between atoms: _2542  and  _2543
REMARK  750  A    between atoms: _2543  and  _2544
REMARK  751  A    between atoms: _2554  and  _2555
REMARK  752  A    between atoms: _2555  and  _2556
REMARK  753  A    between atoms: _2561  and  _2562
REMARK  754  A    between atoms: _2562  and  _2563
REMARK  755  A    between atoms: _2562  and  _2565
REMARK  756  A    between atoms: _2565  and  _2566
REMARK  757  A    between atoms: _2566  and  _2567
REMARK  758  A    between atoms: _2567  and  _2568
REMARK  759  A    between atoms: _2585  and  _2586
REMARK  760  A    between atoms: _2586  and  _2587
REMARK  761  A    between atoms: _2592  and  _2593
REMARK  762  A    between atoms: _2593  and  _2594
REMARK  763  A    between atoms: _2593  and  _2596
REMARK  764  A    between atoms: _2596  and  _2597
REMARK  765  A    between atoms: _2596  and  _2598
REMARK  766  A    between atoms: _2606  and  _2607
REMARK  767  A    between atoms: _2607  and  _2608
REMARK  768  A    between atoms: _2607  and  _2610
REMARK  769  A    between atoms: _2610  and  _2611
REMARK  770  A    between atoms: _2611  and  _2612
REMARK  771  A    between atoms: _2612  and  _2613
REMARK  772  A    between atoms: _2613  and  _2614
REMARK  773  A    between atoms: _2628  and  _2629
REMARK  774  A    between atoms: _2629  and  _2630
REMARK  775  A    between atoms: _2629  and  _2632
REMARK  776  A    between atoms: _2632  and  _2633
REMARK  777  A    between atoms: _2632  and  _2634
REMARK  778  A    between atoms: _2644  and  _2645
REMARK  779  A    between atoms: _2645  and  _2646
REMARK  780  A    between atoms: _2645  and  _2648
REMARK  781  A    between atoms: _2648  and  _2649
REMARK  782  A    between atoms: _2648  and  _2650
REMARK  783  A    between atoms: _2649  and  _2651
REMARK  784  A    between atoms: _2663  and  _2664
REMARK  785  A    between atoms: _2664  and  _2665
REMARK  786  A    between atoms: _2664  and  _2667
REMARK  787  A    between atoms: _2667  and  _2668
REMARK  788  A    between atoms: _2668  and  _2669
REMARK  789  A    between atoms: _2668  and  _2670
REMARK  790  A    between atoms: _2682  and  _2683
REMARK  791  A    between atoms: _2683  and  _2684
REMARK  792  A    between atoms: _2683  and  _2686
REMARK  793  A    between atoms: _2686  and  _2687
REMARK  794  A    between atoms: _2699  and  _2700
REMARK  795  A    between atoms: _2700  and  _2701
REMARK  796  A    between atoms: _2700  and  _2703
REMARK  797  A    between atoms: _2703  and  _2704
REMARK  798  A    between atoms: _2704  and  _2705
REMARK  799  A    between atoms: _2704  and  _2706
REMARK  800  A    between atoms: _2718  and  _2719
REMARK  801  A    between atoms: _2719  and  _2720
REMARK  802  A    between atoms: _2719  and  _2722
REMARK  803  A    between atoms: _2722  and  _2723
REMARK  804  A    between atoms: _2723  and  _2724
REMARK  805  A    between atoms: _2724  and  _2725
REMARK  806  A    between atoms: _2725  and  _2726
REMARK  807  A    between atoms: _2740  and  _2741
REMARK  808  A    between atoms: _2741  and  _2742
REMARK  809  A    between atoms: _2741  and  _2744
REMARK  810  A    between atoms: _2744  and  _2745
REMARK  811  A    between atoms: _2745  and  _2746
REMARK  812  A    between atoms: _2755  and  _2756
REMARK  813  A    between atoms: _2756  and  _2757
REMARK  814  A    between atoms: _2756  and  _2759
REMARK  815  A    between atoms: _2759  and  _2760
REMARK  816  A    between atoms: _2767  and  _2768
REMARK  817  A    between atoms: _2768  and  _2769
REMARK  818  A    between atoms: _2768  and  _2771
REMARK  819  A    between atoms: _2771  and  _2772
REMARK  820  A    between atoms: _2772  and  _2773
REMARK  821  A    between atoms: _2784  and  _2785
REMARK  822  A    between atoms: _2785  and  _2786
REMARK  823  A    between atoms: _2785  and  _2788
REMARK  824  A    between atoms: _2788  and  _2789
REMARK  825  A    between atoms: _2788  and  _2790
REMARK  826  A    between atoms: _2798  and  _2799
REMARK  827  A    between atoms: _2799  and  _2800
REMARK  828  A    between atoms: _2799  and  _2802
REMARK  829  A    between atoms: _2802  and  _2803
REMARK  830  A    between atoms: _2803  and  _2804
REMARK  831  A    between atoms: _2813  and  _2814
REMARK  832  A    between atoms: _2814  and  _2815
REMARK  833  A    between atoms: _2814  and  _2817
REMARK  834  A    between atoms: _2817  and  _2818
REMARK  835  A    between atoms: _2823  and  _2824
REMARK  836  A    between atoms: _2834  and  _2835
REMARK  837  A    between atoms: _2835  and  _2838
REMARK  838  A    between atoms: _2838  and  _2839
REMARK  839  A    between atoms: _2839  and  _2840
REMARK  840  A    between atoms: _2839  and  _2841
REMARK  841  A    between atoms: _2884  and  _2885
REMARK  842  A    between atoms: _2884  and  _2887
REMARK  843  A    between atoms: _2887  and  _2888
REMARK  844  A    between atoms: _2888  and  _2889
REMARK  845  A    between atoms: _2899  and  _2900
REMARK  846  A    between atoms: _2900  and  _2901
REMARK  847  A    between atoms: _2900  and  _2903
REMARK  848  A    between atoms: _2903  and  _2904
REMARK  849  A    between atoms: _2904  and  _2905
REMARK  850  A    between atoms: _2905  and  _2906
REMARK  851  A    between atoms: _2923  and  _2924
REMARK  852  A    between atoms: _2924  and  _2925
REMARK  853  A    between atoms: _2924  and  _2927
REMARK  854  A    between atoms: _2927  and  _2928
REMARK  855  A    between atoms: _2928  and  _2929
REMARK  856  A    between atoms: _2929  and  _2930
REMARK  857  A    between atoms: _2947  and  _2948
REMARK  858  A    between atoms: _2948  and  _2949
REMARK  859  A    between atoms: _2948  and  _2951
REMARK  860  A    between atoms: _2951  and  _2952
REMARK  861  A    between atoms: _2951  and  _2953
REMARK  862  A    between atoms: _2952  and  _2954
REMARK  863  A    between atoms: _2966  and  _2967
REMARK  864  A    between atoms: _2967  and  _2968
REMARK  865  A    between atoms: _2967  and  _2970
REMARK  866  A    between atoms: _2970  and  _2971
REMARK  867  A    between atoms: _2971  and  _2972
REMARK  868  A    between atoms: _2972  and  _2973
REMARK  869  A    between atoms: _2973  and  _2974
REMARK  870  A    between atoms: _2988  and  _2989
REMARK  871  A    between atoms: _2989  and  _2990
REMARK  872  A    between atoms: _2989  and  _2992
REMARK  873  A    between atoms: _2992  and  _2993
REMARK  874  A    between atoms: _2993  and  _2994
REMARK  875  A    between atoms: _3003  and  _3004
REMARK  876  A    between atoms: _3004  and  _3005
REMARK  877  A    between atoms: _3004  and  _3007
REMARK  878  A    between atoms: _3007  and  _3008
REMARK  879  A    between atoms: _3007  and  _3009
REMARK  880  A    between atoms: _3008  and  _3010
REMARK  881  A    between atoms: _3022  and  _3023
REMARK  882  A    between atoms: _3023  and  _3024
REMARK  883  A    between atoms: _3023  and  _3026
REMARK  884  A    between atoms: _3026  and  _3027
REMARK  885  A    between atoms: _3026  and  _3028
REMARK  886  A    between atoms: _3038  and  _3039
REMARK  887  A    between atoms: _3039  and  _3040
REMARK  888  A    between atoms: _3039  and  _3042
REMARK  889  A    between atoms: _3042  and  _3043
REMARK  890  A    between atoms: _3043  and  _3044
REMARK  891  A    between atoms: _3044  and  _3045
REMARK  892  A    between atoms: _3045  and  _3046
REMARK  893  A    between atoms: _3060  and  _3061
REMARK  894  A    between atoms: _3061  and  _3062
REMARK  895  A    between atoms: _3061  and  _3064
REMARK  896  A    between atoms: _3064  and  _3065
REMARK  897  A    between atoms: _3065  and  _3066
REMARK  898  A    between atoms: _3066  and  _3067
REMARK  899  A    between atoms: _3067  and  _3068
REMARK  900  A    between atoms: _3082  and  _3083
REMARK  901  A    between atoms: _3083  and  _3084
REMARK  902  A    between atoms: _3083  and  _3086
REMARK  903  A    between atoms: _3086  and  _3087
REMARK  904  A    between atoms: _3099  and  _3100
REMARK  905  A    between atoms: _3100  and  _3101
REMARK  906  A    between atoms: _3100  and  _3103
REMARK  907  A    between atoms: _3103  and  _3104
REMARK  908  A    between atoms: _3110  and  _3111
REMARK  909  A    between atoms: _3111  and  _3112
REMARK  910  A    between atoms: _3111  and  _3114
REMARK  911  A    between atoms: _3114  and  _3115
REMARK  912  A    between atoms: _3115  and  _3116
REMARK  913  A    between atoms: _3127  and  _3128
REMARK  914  A    between atoms: _3128  and  _3129
REMARK  915  A    between atoms: _3128  and  _3131
REMARK  916  A    between atoms: _3131  and  _3132
REMARK  917  A    between atoms: _3147  and  _3148
REMARK  918  A    between atoms: _3148  and  _3149
REMARK  919  A    between atoms: _3148  and  _3151
REMARK  920  A    between atoms: _3151  and  _3152
REMARK  921  A    between atoms: _3151  and  _3153
REMARK  922  A    between atoms: _3152  and  _3154
REMARK  923  A    between atoms: _3166  and  _3167
REMARK  924  A    between atoms: _3167  and  _3168
REMARK  925  A    between atoms: _3173  and  _3174
REMARK  926  A    between atoms: _3174  and  _3175
REMARK  927  A    between atoms: _3174  and  _3177
REMARK  928  A    between atoms: _3177  and  _3178
REMARK  929  A    between atoms: _3183  and  _3184
REMARK  930  A    between atoms: _3195  and  _3196
REMARK  931  A    between atoms: _3208  and  _3209
REMARK  932  A    between atoms: _3209  and  _3210
REMARK  933  A    between atoms: _3209  and  _3212
REMARK  934  A    between atoms: _3212  and  _3213
REMARK  935  A    between atoms: _3212  and  _3214
REMARK  936  A    between atoms: _3213  and  _3215
REMARK  937  A    between atoms: _3227  and  _3228
REMARK  938  A    between atoms: _3228  and  _3229
REMARK  939  A    between atoms: _3228  and  _3231
REMARK  940  A    between atoms: _3231  and  _3232
REMARK  941  A    between atoms: _3231  and  _3233
REMARK  942  A    between atoms: _3241  and  _3242
REMARK  943  A    between atoms: _3242  and  _3243
REMARK  944  A    between atoms: _3242  and  _3245
REMARK  945  A    between atoms: _3245  and  _3246
REMARK  946  A    between atoms: _3246  and  _3247
REMARK  947  A    between atoms: _3246  and  _3248
REMARK  948  A    between atoms: _3260  and  _3261
REMARK  949  A    between atoms: _3261  and  _3262
REMARK  950  A    between atoms: _3261  and  _3264
REMARK  951  A    between atoms: _3264  and  _3265
REMARK  952  A    between atoms: _3280  and  _3281
REMARK  953  A    between atoms: _3281  and  _3282
REMARK  954  A    between atoms: _3281  and  _3284
REMARK  955  A    between atoms: _3284  and  _3285
REMARK  956  A    between atoms: _3284  and  _3286
REMARK  957  A    between atoms: _3296  and  _3297
REMARK  958  A    between atoms: _3297  and  _3298
REMARK  959  A    between atoms: _3297  and  _3300
REMARK  960  A    between atoms: _3300  and  _3301
REMARK  961  A    between atoms: _3301  and  _3302
REMARK                            x       y       z     vdW  Elec       q    Type
REMARK                         _______ _______ _______ _____ _____    ______ ____
ROOT
ATOM      1  H   UNK     1      10.532  34.813  17.176  0.00  0.00    +0.000 HD
ENDROOT
TORSDOF 0
REMARK  Name = /Users/mlugowska/PhD/ML_residence_time_prediction/protein_files/5J20_protein.pdb
REMARK  961 active torsions:
REMARK  status: ('A' for Active; 'I' for Inactive)
REMARK    1  A    between atoms: _2  and  _3
REMARK    2  A    between atoms: _2  and  _5
REMARK    3  A    between atoms: _10  and  _11
REMARK    4  A    between atoms: _11  and  _12
REMARK    5  A    between atoms: _11  and  _14
REMARK    6  A    between atoms: _14  and  _15
REMARK    7  A    between atoms: _14  and  _16
REMARK    8  A    between atoms: _26  and  _27
REMARK    9  A    between atoms: _27  and  _28
REMARK   10  A    between atoms: _27  and  _30
REMARK   11  A    between atoms: _30  and  _31
REMARK   12  A    between atoms: _31  and  _32
REMARK   13  A    between atoms: _41  and  _42
REMARK   14  A    between atoms: _42  and  _43
REMARK   15  A    between atoms: _42  and  _45
REMARK   16  A    between atoms: _45  and  _46
REMARK   17  A    between atoms: _45  and  _47
REMARK   18  A    between atoms: _55  and  _56
REMARK   19  A    between atoms: _56  and  _57
REMARK   20  A    between atoms: _56  and  _59
REMARK   21  A    between atoms: _59  and  _60
REMARK   22  A    between atoms: _75  and  _76
REMARK   23  A    between atoms: _76  and  _77
REMARK   24  A    between atoms: _76  and  _79
REMARK   25  A    between atoms: _85  and  _86
REMARK   26  A    between atoms: _86  and  _87
REMARK   27  A    between atoms: _86  and  _89
REMARK   28  A    between atoms: _89  and  _90
REMARK   29  A    between atoms: _105  and  _106
REMARK   30  A    between atoms: _106  and  _107
REMARK   31  A    between atoms: _106  and  _109
REMARK   32  A    between atoms: _109  and  _110
REMARK   33  A    between atoms: _110  and  _111
REMARK   34  A    between atoms: _122  and  _123
REMARK   35  A    between atoms: _123  and  _124
REMARK   36  A    between atoms: _123  and  _126
REMARK   37  A    between atoms: _132  and  _133
REMARK   38  A    between atoms: _133  and  _134
REMARK   39  A    between atoms: _133  and  _136
REMARK   40  A    between atoms: _136  and  _137
REMARK   41  A    between atoms: _137  and  _138
REMARK   42  A    between atoms: _147  and  _148
REMARK   43  A    between atoms: _148  and  _149
REMARK   44  A    between atoms: _148  and  _151
REMARK   45  A    between atoms: _151  and  _152
REMARK   46  A    between atoms: _151  and  _153
REMARK   47  A    between atoms: _152  and  _154
REMARK   48  A    between atoms: _166  and  _167
REMARK   49  A    between atoms: _167  and  _168
REMARK   50  A    between atoms: _167  and  _170
REMARK   51  A    between atoms: _176  and  _177
REMARK   52  A    between atoms: _177  and  _178
REMARK   53  A    between atoms: _177  and  _180
REMARK   54  A    between atoms: _180  and  _181
REMARK   55  A    between atoms: _181  and  _182
REMARK   56  A    between atoms: _193  and  _194
REMARK   57  A    between atoms: _194  and  _195
REMARK   58  A    between atoms: _194  and  _197
REMARK   59  A    between atoms: _197  and  _198
REMARK   60  A    between atoms: _198  and  _199
REMARK   61  A    between atoms: _198  and  _200
REMARK   62  A    between atoms: _212  and  _213
REMARK   63  A    between atoms: _213  and  _214
REMARK   64  A    between atoms: _213  and  _216
REMARK   65  A    between atoms: _216  and  _217
REMARK   66  A    between atoms: _217  and  _218
REMARK   67  A    between atoms: _218  and  _219
REMARK   68  A    between atoms: _229  and  _230
REMARK   69  A    between atoms: _230  and  _231
REMARK   70  A    between atoms: _230  and  _233
REMARK   71  A    between atoms: _233  and  _234
REMARK   72  A    between atoms: _240  and  _241
REMARK   73  A    between atoms: _241  and  _242
REMARK   74  A    between atoms: _241  and  _244
REMARK   75  A    between atoms: _244  and  _245
REMARK   76  A    between atoms: _245  and  _246
REMARK   77  A    between atoms: _245  and  _247
REMARK   78  A    between atoms: _259  and  _260
REMARK   79  A    between atoms: _260  and  _261
REMARK   80  A    between atoms: _260  and  _263
REMARK   81  A    between atoms: _263  and  _264
REMARK   82  A    between atoms: _263  and  _265
REMARK   83  A    between atoms: _264  and  _266
REMARK   84  A    between atoms: _278  and  _279
REMARK   85  A    between atoms: _279  and  _280
REMARK   86  A    between atoms: _279  and  _282
REMARK   87  A    between atoms: _282  and  _283
REMARK   88  A    between atoms: _282  and  _284
REMARK   89  A    between atoms: _283  and  _285
REMARK   90  A    between atoms: _297  and  _298
REMARK   91  A    between atoms: _298  and  _299
REMARK   92  A    between atoms: _298  and  _301
REMARK   93  A    between atoms: _301  and  _302
REMARK   94  A    between atoms: _311  and  _312
REMARK   95  A    between atoms: _312  and  _313
REMARK   96  A    between atoms: _312  and  _315
REMARK   97  A    between atoms: _315  and  _316
REMARK   98  A    between atoms: _315  and  _317
REMARK   99  A    between atoms: _325  and  _326
REMARK  100  A    between atoms: _326  and  _327
REMARK  101  A    between atoms: _326  and  _329
REMARK  102  A    between atoms: _329  and  _330
REMARK  103  A    between atoms: _345  and  _346
REMARK  104  A    between atoms: _346  and  _347
REMARK  105  A    between atoms: _346  and  _349
REMARK  106  A    between atoms: _349  and  _350
REMARK  107  A    between atoms: _355  and  _356
REMARK  108  A    between atoms: _366  and  _367
REMARK  109  A    between atoms: _367  and  _368
REMARK  110  A    between atoms: _367  and  _370
REMARK  111  A    between atoms: _370  and  _371
REMARK  112  A    between atoms: _377  and  _378
REMARK  113  A    between atoms: _378  and  _379
REMARK  114  A    between atoms: _378  and  _381
REMARK  115  A    between atoms: _381  and  _382
REMARK  116  A    between atoms: _391  and  _392
REMARK  117  A    between atoms: _392  and  _393
REMARK  118  A    between atoms: _392  and  _395
REMARK  119  A    between atoms: _395  and  _396
REMARK  120  A    between atoms: _396  and  _397
REMARK  121  A    between atoms: _397  and  _398
REMARK  122  A    between atoms: _398  and  _399
REMARK  123  A    between atoms: _413  and  _414
REMARK  124  A    between atoms: _414  and  _415
REMARK  125  A    between atoms: _414  and  _417
REMARK  126  A    between atoms: _417  and  _418
REMARK  127  A    between atoms: _418  and  _419
REMARK  128  A    between atoms: _428  and  _429
REMARK  129  A    between atoms: _429  and  _430
REMARK  130  A    between atoms: _429  and  _432
REMARK  131  A    between atoms: _432  and  _433
REMARK  132  A    between atoms: _432  and  _434
REMARK  133  A    between atoms: _433  and  _435
REMARK  134  A    between atoms: _447  and  _448
REMARK  135  A    between atoms: _448  and  _449
REMARK  136  A    between atoms: _448  and  _451
REMARK  137  A    between atoms: _451  and  _452
REMARK  138  A    between atoms: _467  and  _468
REMARK  139  A    between atoms: _468  and  _469
REMARK  140  A    between atoms: _468  and  _471
REMARK  141  A    between atoms: _471  and  _472
REMARK  142  A    between atoms: _472  and  _473
REMARK  143  A    between atoms: _472  and  _474
REMARK  144  A    between atoms: _486  and  _487
REMARK  145  A    between atoms: _487  and  _488
REMARK  146  A    between atoms: _487  and  _490
REMARK  147  A    between atoms: _490  and  _491
REMARK  148  A    between atoms: _491  and  _492
REMARK  149  A    between atoms: _492  and  _493
REMARK  150  A    between atoms: _510  and  _511
REMARK  151  A    between atoms: _511  and  _512
REMARK  152  A    between atoms: _511  and  _514
REMARK  153  A    between atoms: _514  and  _515
REMARK  154  A    between atoms: _515  and  _516
REMARK  155  A    between atoms: _525  and  _526
REMARK  156  A    between atoms: _526  and  _527
REMARK  157  A    between atoms: _526  and  _529
REMARK  158  A    between atoms: _529  and  _530
REMARK  159  A    between atoms: _530  and  _531
REMARK  160  A    between atoms: _530  and  _532
REMARK  161  A    between atoms: _544  and  _545
REMARK  162  A    between atoms: _545  and  _546
REMARK  163  A    between atoms: _545  and  _548
REMARK  164  A    between atoms: _548  and  _549
REMARK  165  A    between atoms: _548  and  _550
REMARK  166  A    between atoms: _549  and  _551
REMARK  167  A    between atoms: _563  and  _564
REMARK  168  A    between atoms: _564  and  _565
REMARK  169  A    between atoms: _564  and  _567
REMARK  170  A    between atoms: _567  and  _568
REMARK  171  A    between atoms: _574  and  _575
REMARK  172  A    between atoms: _575  and  _576
REMARK  173  A    between atoms: _575  and  _578
REMARK  174  A    between atoms: _578  and  _579
REMARK  175  A    between atoms: _588  and  _589
REMARK  176  A    between atoms: _589  and  _590
REMARK  177  A    between atoms: _589  and  _592
REMARK  178  A    between atoms: _592  and  _593
REMARK  179  A    between atoms: _599  and  _600
REMARK  180  A    between atoms: _600  and  _601
REMARK  181  A    between atoms: _600  and  _603
REMARK  182  A    between atoms: _603  and  _604
REMARK  183  A    between atoms: _610  and  _611
REMARK  184  A    between atoms: _611  and  _612
REMARK  185  A    between atoms: _611  and  _614
REMARK  186  A    between atoms: _614  and  _615
REMARK  187  A    between atoms: _622  and  _623
REMARK  188  A    between atoms: _623  and  _624
REMARK  189  A    between atoms: _623  and  _626
REMARK  190  A    between atoms: _632  and  _633
REMARK  191  A    between atoms: _633  and  _634
REMARK  192  A    between atoms: _633  and  _636
REMARK  193  A    between atoms: _636  and  _637
REMARK  194  A    between atoms: _637  and  _638
REMARK  195  A    between atoms: _637  and  _639
REMARK  196  A    between atoms: _651  and  _652
REMARK  197  A    between atoms: _652  and  _653
REMARK  198  A    between atoms: _652  and  _655
REMARK  199  A    between atoms: _655  and  _656
REMARK  200  A    between atoms: _663  and  _664
REMARK  201  A    between atoms: _664  and  _665
REMARK  202  A    between atoms: _664  and  _667
REMARK  203  A    between atoms: _667  and  _668
REMARK  204  A    between atoms: _668  and  _669
REMARK  205  A    between atoms: _669  and  _670
REMARK  206  A    between atoms: _670  and  _671
REMARK  207  A    between atoms: _685  and  _686
REMARK  208  A    between atoms: _686  and  _687
REMARK  209  A    between atoms: _686  and  _689
REMARK  210  A    between atoms: _689  and  _690
REMARK  211  A    between atoms: _689  and  _691
REMARK  212  A    between atoms: _690  and  _692
REMARK  213  A    between atoms: _704  and  _705
REMARK  214  A    between atoms: _705  and  _706
REMARK  215  A    between atoms: _705  and  _708
REMARK  216  A    between atoms: _708  and  _709
REMARK  217  A    between atoms: _709  and  _710
REMARK  218  A    between atoms: _710  and  _711
REMARK  219  A    between atoms: _728  and  _729
REMARK  220  A    between atoms: _729  and  _730
REMARK  221  A    between atoms: _729  and  _732
REMARK  222  A    between atoms: _732  and  _733
REMARK  223  A    between atoms: _738  and  _739
REMARK  224  A    between atoms: _749  and  _750
REMARK  225  A    between atoms: _750  and  _751
REMARK  226  A    between atoms: _750  and  _753
REMARK  227  A    between atoms: _753  and  _754
REMARK  228  A    between atoms: _754  and  _755
REMARK  229  A    between atoms: _764  and  _765
REMARK  230  A    between atoms: _765  and  _766
REMARK  231  A    between atoms: _765  and  _768
REMARK  232  A    between atoms: _772  and  _773
REMARK  233  A    between atoms: _773  and  _774
REMARK  234  A    between atoms: _773  and  _776
REMARK  235  A    between atoms: _776  and  _777
REMARK  236  A    between atoms: _777  and  _778
REMARK  237  A    between atoms: _777  and  _779
REMARK  238  A    between atoms: _791  and  _792
REMARK  239  A    between atoms: _792  and  _793
REMARK  240  A    between atoms: _792  and  _795
REMARK  241  A    between atoms: _795  and  _796
REMARK  242  A    between atoms: _795  and  _797
REMARK  243  A    between atoms: _805  and  _806
REMARK  244  A    between atoms: _806  and  _807
REMARK  245  A    between atoms: _806  and  _809
REMARK  246  A    between atoms: _809  and  _810
REMARK  247  A    between atoms: _818  and  _819
REMARK  248  A    between atoms: _831  and  _832
REMARK  249  A    between atoms: _832  and  _833
REMARK  250  A    between atoms: _832  and  _835
REMARK  251  A    between atoms: _835  and  _836
REMARK  252  A    between atoms: _842  and  _843
REMARK  253  A    between atoms: _843  and  _844
REMARK  254  A    between atoms: _843  and  _846
REMARK  255  A    between atoms: _846  and  _847
REMARK  256  A    between atoms: _847  and  _848
REMARK  257  A    between atoms: _848  and  _849
REMARK  258  A    between atoms: _849  and  _850
REMARK  259  A    between atoms: _864  and  _865
REMARK  260  A    between atoms: _865  and  _866
REMARK  261  A    between atoms: _865  and  _868
REMARK  262  A    between atoms: _868  and  _869
REMARK  263  A    between atoms: _869  and  _870
REMARK  264  A    between atoms: _869  and  _871
REMARK  265  A    between atoms: _883  and  _884
REMARK  266  A    between atoms: _884  and  _885
REMARK  267  A    between atoms: _884  and  _887
REMARK  268  A    between atoms: _887  and  _888
REMARK  269  A    between atoms: _895  and  _896
REMARK  270  A    between atoms: _896  and  _897
REMARK  271  A    between atoms: _896  and  _899
REMARK  272  A    between atoms: _899  and  _900
REMARK  273  A    between atoms: _906  and  _907
REMARK  274  A    between atoms: _907  and  _908
REMARK  275  A    between atoms: _913  and  _914
REMARK  276  A    between atoms: _914  and  _915
REMARK  277  A    between atoms: _914  and  _917
REMARK  278  A    between atoms: _917  and  _918
REMARK  279  A    between atoms: _918  and  _919
REMARK  280  A    between atoms: _919  and  _920
REMARK  281  A    between atoms: _920  and  _921
REMARK  282  A    between atoms: _935  and  _936
REMARK  283  A    between atoms: _936  and  _937
REMARK  284  A    between atoms: _936  and  _939
REMARK  285  A    between atoms: _939  and  _940
REMARK  286  A    between atoms: _940  and  _941
REMARK  287  A    between atoms: _950  and  _951
REMARK  288  A    between atoms: _951  and  _952
REMARK  289  A    between atoms: _951  and  _954
REMARK  290  A    between atoms: _954  and  _955
REMARK  291  A    between atoms: _955  and  _956
REMARK  292  A    between atoms: _955  and  _957
REMARK  293  A    between atoms: _969  and  _970
REMARK  294  A    between atoms: _970  and  _971
REMARK  295  A    between atoms: _970  and  _973
REMARK  296  A    between atoms: _973  and  _974
REMARK  297  A    between atoms: _986  and  _987
REMARK  298  A    between atoms: _987  and  _988
REMARK  299  A    between atoms: _987  and  _990
REMARK  300  A    between atoms: _990  and  _991
REMARK  301  A    between atoms: _990  and  _992
REMARK  302  A    between atoms: _991  and  _993
REMARK  303  A    between atoms: _1005  and  _1006
REMARK  304  A    between atoms: _1006  and  _1007
REMARK  305  A    between atoms: _1006  and  _1009
REMARK  306  A    between atoms: _1009  and  _1010
REMARK  307  A    between atoms: _1019  and  _1020
REMARK  308  A    between atoms: _1020  and  _1021
REMARK  309  A    between atoms: _1020  and  _1023
REMARK  310  A    between atoms: _1023  and  _1024
REMARK  311  A    between atoms: _1024  and  _1025
REMARK  312  A    between atoms: _1024  and  _1026
REMARK  313  A    between atoms: _1038  and  _1039
REMARK  314  A    between atoms: _1039  and  _1040
REMARK  315  A    between atoms: _1039  and  _1042
REMARK  316  A    between atoms: _1042  and  _1043
REMARK  317  A    between atoms: _1042  and  _1044
REMARK  318  A    between atoms: _1043  and  _1045
REMARK  319  A    between atoms: _1058  and  _1059
REMARK  320  A    between atoms: _1071  and  _1072
REMARK  321  A    between atoms: _1072  and  _1073
REMARK  322  A    between atoms: _1072  and  _1075
REMARK  323  A    between atoms: _1075  and  _1076
REMARK  324  A    between atoms: _1085  and  _1086
REMARK  325  A    between atoms: _1086  and  _1087
REMARK  326  A    between atoms: _1086  and  _1089
REMARK  327  A    between atoms: _1089  and  _1090
REMARK  328  A    between atoms: _1090  and  _1091
REMARK  329  A    between atoms: _1091  and  _1092
REMARK  330  A    between atoms: _1092  and  _1093
REMARK  331  A    between atoms: _1107  and  _1108
REMARK  332  A    between atoms: _1108  and  _1109
REMARK  333  A    between atoms: _1108  and  _1111
REMARK  334  A    between atoms: _1111  and  _1112
REMARK  335  A    between atoms: _1112  and  _1113
REMARK  336  A    between atoms: _1124  and  _1125
REMARK  337  A    between atoms: _1125  and  _1126
REMARK  338  A    between atoms: _1125  and  _1128
REMARK  339  A    between atoms: _1128  and  _1129
REMARK  340  A    between atoms: _1136  and  _1137
REMARK  341  A    between atoms: _1137  and  _1138
REMARK  342  A    between atoms: _1137  and  _1140
REMARK  343  A    between atoms: _1140  and  _1141
REMARK  344  A    between atoms: _1141  and  _1142
REMARK  345  A    between atoms: _1142  and  _1143
REMARK  346  A    between atoms: _1160  and  _1161
REMARK  347  A    between atoms: _1161  and  _1162
REMARK  348  A    between atoms: _1161  and  _1164
REMARK  349  A    between atoms: _1164  and  _1165
REMARK  350  A    between atoms: _1164  and  _1166
REMARK  351  A    between atoms: _1174  and  _1175
REMARK  352  A    between atoms: _1175  and  _1176
REMARK  353  A    between atoms: _1175  and  _1178
REMARK  354  A    between atoms: _1178  and  _1179
REMARK  355  A    between atoms: _1179  and  _1180
REMARK  356  A    between atoms: _1179  and  _1181
REMARK  357  A    between atoms: _1193  and  _1194
REMARK  358  A    between atoms: _1194  and  _1195
REMARK  359  A    between atoms: _1194  and  _1197
REMARK  360  A    between atoms: _1197  and  _1198
REMARK  361  A    between atoms: _1197  and  _1199
REMARK  362  A    between atoms: _1207  and  _1208
REMARK  363  A    between atoms: _1208  and  _1209
REMARK  364  A    between atoms: _1208  and  _1211
REMARK  365  A    between atoms: _1211  and  _1212
REMARK  366  A    between atoms: _1211  and  _1213
REMARK  367  A    between atoms: _1212  and  _1214
REMARK  368  A    between atoms: _1226  and  _1227
REMARK  369  A    between atoms: _1227  and  _1228
REMARK  370  A    between atoms: _1227  and  _1230
REMARK  371  A    between atoms: _1230  and  _1231
REMARK  372  A    between atoms: _1230  and  _1232
REMARK  373  A    between atoms: _1242  and  _1243
REMARK  374  A    between atoms: _1243  and  _1244
REMARK  375  A    between atoms: _1243  and  _1246
REMARK  376  A    between atoms: _1246  and  _1247
REMARK  377  A    between atoms: _1254  and  _1255
REMARK  378  A    between atoms: _1255  and  _1256
REMARK  379  A    between atoms: _1255  and  _1258
REMARK  380  A    between atoms: _1258  and  _1259
REMARK  381  A    between atoms: _1258  and  _1260
REMARK  382  A    between atoms: _1268  and  _1269
REMARK  383  A    between atoms: _1269  and  _1270
REMARK  384  A    between atoms: _1275  and  _1276
REMARK  385  A    between atoms: _1276  and  _1277
REMARK  386  A    between atoms: _1276  and  _1279
REMARK  387  A    between atoms: _1279  and  _1280
REMARK  388  A    between atoms: _1279  and  _1281
REMARK  389  A    between atoms: _1280  and  _1282
REMARK  390  A    between atoms: _1294  and  _1295
REMARK  391  A    between atoms: _1295  and  _1296
REMARK  392  A    between atoms: _1301  and  _1302
REMARK  393  A    between atoms: _1302  and  _1303
REMARK  394  A    between atoms: _1302  and  _1305
REMARK  395  A    between atoms: _1305  and  _1306
REMARK  396  A    between atoms: _1306  and  _1307
REMARK  397  A    between atoms: _1307  and  _1308
REMARK  398  A    between atoms: _1318  and  _1319
REMARK  399  A    between atoms: _1319  and  _1320
REMARK  400  A    between atoms: _1319  and  _1322
REMARK  401  A    between atoms: _1322  and  _1323
REMARK  402  A    between atoms: _1322  and  _1324
REMARK  403  A    between atoms: _1332  and  _1333
REMARK  404  A    between atoms: _1333  and  _1334
REMARK  405  A    between atoms: _1333  and  _1336
REMARK  406  A    between atoms: _1336  and  _1337
REMARK  407  A    between atoms: _1337  and  _1338
REMARK  408  A    between atoms: _1338  and  _1339
REMARK  409  A    between atoms: _1339  and  _1340
REMARK  410  A    between atoms: _1354  and  _1355
REMARK  411  A    between atoms: _1355  and  _1356
REMARK  412  A    between atoms: _1355  and  _1358
REMARK  413  A    between atoms: _1364  and  _1365
REMARK  414  A    between atoms: _1365  and  _1366
REMARK  415  A    between atoms: _1365  and  _1368
REMARK  416  A    between atoms: _1368  and  _1369
REMARK  417  A    between atoms: _1376  and  _1377
REMARK  418  A    between atoms: _1377  and  _1378
REMARK  419  A    between atoms: _1377  and  _1380
REMARK  420  A    between atoms: _1380  and  _1381
REMARK  421  A    between atoms: _1381  and  _1382
REMARK  422  A    between atoms: _1381  and  _1383
REMARK  423  A    between atoms: _1395  and  _1396
REMARK  424  A    between atoms: _1396  and  _1399
REMARK  425  A    between atoms: _1399  and  _1400
REMARK  426  A    between atoms: _1399  and  _1401
REMARK  427  A    between atoms: _1400  and  _1402
REMARK  428  A    between atoms: _1422  and  _1425
REMARK  429  A    between atoms: _1424  and  _1428
REMARK  430  A    between atoms: _1425  and  _1427
REMARK  431  A    between atoms: _1443  and  _1444
REMARK  432  A    between atoms: _1443  and  _1446
REMARK  433  A    between atoms: _1446  and  _1447
REMARK  434  A    between atoms: _1457  and  _1458
REMARK  435  A    between atoms: _1458  and  _1459
REMARK  436  A    between atoms: _1458  and  _1461
REMARK  437  A    between atoms: _1461  and  _1462
REMARK  438  A    between atoms: _1462  and  _1463
REMARK  439  A    between atoms: _1462  and  _1464
REMARK  440  A    between atoms: _1476  and  _1477
REMARK  441  A    between atoms: _1477  and  _1478
REMARK  442  A    between atoms: _1483  and  _1484
REMARK  443  A    between atoms: _1484  and  _1485
REMARK  444  A    between atoms: _1484  and  _1487
REMARK  445  A    between atoms: _1487  and  _1488
REMARK  446  A    between atoms: _1487  and  _1489
REMARK  447  A    between atoms: _1497  and  _1498
REMARK  448  A    between atoms: _1498  and  _1499
REMARK  449  A    between atoms: _1498  and  _1501
REMARK  450  A    between atoms: _1501  and  _1502
REMARK  451  A    between atoms: _1501  and  _1503
REMARK  452  A    between atoms: _1502  and  _1504
REMARK  453  A    between atoms: _1516  and  _1517
REMARK  454  A    between atoms: _1517  and  _1518
REMARK  455  A    between atoms: _1517  and  _1520
REMARK  456  A    between atoms: _1526  and  _1527
REMARK  457  A    between atoms: _1527  and  _1528
REMARK  458  A    between atoms: _1527  and  _1530
REMARK  459  A    between atoms: _1530  and  _1531
REMARK  460  A    between atoms: _1531  and  _1532
REMARK  461  A    between atoms: _1532  and  _1533
REMARK  462  A    between atoms: _1533  and  _1534
REMARK  463  A    between atoms: _1548  and  _1549
REMARK  464  A    between atoms: _1549  and  _1550
REMARK  465  A    between atoms: _1549  and  _1552
REMARK  466  A    between atoms: _1552  and  _1553
REMARK  467  A    between atoms: _1559  and  _1560
REMARK  468  A    between atoms: _1560  and  _1561
REMARK  469  A    between atoms: _1566  and  _1567
REMARK  470  A    between atoms: _1567  and  _1568
REMARK  471  A    between atoms: _1567  and  _1570
REMARK  472  A    between atoms: _1570  and  _1571
REMARK  473  A    between atoms: _1570  and  _1572
REMARK  474  A    between atoms: _1580  and  _1581
REMARK  475  A    between atoms: _1581  and  _1582
REMARK  476  A    between atoms: _1581  and  _1584
REMARK  477  A    between atoms: _1584  and  _1585
REMARK  478  A    between atoms: _1585  and  _1586
REMARK  479  A    between atoms: _1586  and  _1587
REMARK  480  A    between atoms: _1587  and  _1588
REMARK  481  A    between atoms: _1602  and  _1603
REMARK  482  A    between atoms: _1603  and  _1604
REMARK  483  A    between atoms: _1603  and  _1606
REMARK  484  A    between atoms: _1612  and  _1613
REMARK  485  A    between atoms: _1613  and  _1614
REMARK  486  A    between atoms: _1613  and  _1616
REMARK  487  A    between atoms: _1616  and  _1617
REMARK  488  A    between atoms: _1632  and  _1633
REMARK  489  A    between atoms: _1633  and  _1634
REMARK  490  A    between atoms: _1633  and  _1636
REMARK  491  A    between atoms: _1636  and  _1637
REMARK  492  A    between atoms: _1637  and  _1638
REMARK  493  A    between atoms: _1638  and  _1639
REMARK  494  A    between atoms: _1649  and  _1650
REMARK  495  A    between atoms: _1650  and  _1651
REMARK  496  A    between atoms: _1650  and  _1653
REMARK  497  A    between atoms: _1653  and  _1654
REMARK  498  A    between atoms: _1654  and  _1655
REMARK  499  A    between atoms: _1664  and  _1665
REMARK  500  A    between atoms: _1665  and  _1666
REMARK  501  A    between atoms: _1665  and  _1668
REMARK  502  A    between atoms: _1674  and  _1675
REMARK  503  A    between atoms: _1675  and  _1676
REMARK  504  A    between atoms: _1675  and  _1678
REMARK  505  A    between atoms: _1678  and  _1679
REMARK  506  A    between atoms: _1679  and  _1680
REMARK  507  A    between atoms: _1679  and  _1681
REMARK  508  A    between atoms: _1693  and  _1694
REMARK  509  A    between atoms: _1694  and  _1695
REMARK  510  A    between atoms: _1694  and  _1697
REMARK  511  A    between atoms: _1697  and  _1698
REMARK  512  A    between atoms: _1698  and  _1699
REMARK  513  A    between atoms: _1710  and  _1711
REMARK  514  A    between atoms: _1711  and  _1712
REMARK  515  A    between atoms: _1711  and  _1714
REMARK  516  A    between atoms: _1720  and  _1721
REMARK  517  A    between atoms: _1721  and  _1722
REMARK  518  A    between atoms: _1727  and  _1728
REMARK  519  A    between atoms: _1728  and  _1729
REMARK  520  A    between atoms: _1728  and  _1731
REMARK  521  A    between atoms: _1737  and  _1738
REMARK  522  A    between atoms: _1738  and  _1739
REMARK  523  A    between atoms: _1738  and  _1741
REMARK  524  A    between atoms: _1741  and  _1742
REMARK  525  A    between atoms: _1749  and  _1750
REMARK  526  A    between atoms: _1750  and  _1751
REMARK  527  A    between atoms: _1750  and  _1753
REMARK  528  A    between atoms: _1753  and  _1754
REMARK  529  A    between atoms: _1753  and  _1755
REMARK  530  A    between atoms: _1754  and  _1756
REMARK  531  A    between atoms: _1768  and  _1769
REMARK  532  A    between atoms: _1769  and  _1772
REMARK  533  A    between atoms: _1772  and  _1773
REMARK  534  A    between atoms: _1791  and  _1793
REMARK  535  A    between atoms: _1792  and  _1794
REMARK  536  A    between atoms: _1814  and  _1815
REMARK  537  A    between atoms: _1814  and  _1817
REMARK  538  A    between atoms: _1817  and  _1818
REMARK  539  A    between atoms: _1817  and  _1819
REMARK  540  A    between atoms: _1818  and  _1820
REMARK  541  A    between atoms: _1833  and  _1834
REMARK  542  A    between atoms: _1834  and  _1835
REMARK  543  A    between atoms: _1840  and  _1841
REMARK  544  A    between atoms: _1841  and  _1842
REMARK  545  A    between atoms: _1841  and  _1844
REMARK  546  A    between atoms: _1844  and  _1845
REMARK  547  A    between atoms: _1845  and  _1846
REMARK  548  A    between atoms: _1857  and  _1858
REMARK  549  A    between atoms: _1858  and  _1859
REMARK  550  A    between atoms: _1858  and  _1861
REMARK  551  A    between atoms: _1861  and  _1862
REMARK  552  A    between atoms: _1877  and  _1878
REMARK  553  A    between atoms: _1878  and  _1879
REMARK  554  A    between atoms: _1884  and  _1885
REMARK  555  A    between atoms: _1885  and  _1886
REMARK  556  A    between atoms: _1885  and  _1888
REMARK  557  A    between atoms: _1888  and  _1889
REMARK  558  A    between atoms: _1888  and  _1890
REMARK  559  A    between atoms: _1900  and  _1901
REMARK  560  A    between atoms: _1901  and  _1902
REMARK  561  A    between atoms: _1907  and  _1908
REMARK  562  A    between atoms: _1908  and  _1909
REMARK  563  A    between atoms: _1908  and  _1911
REMARK  564  A    between atoms: _1911  and  _1912
REMARK  565  A    between atoms: _1927  and  _1928
REMARK  566  A    between atoms: _1928  and  _1929
REMARK  567  A    between atoms: _1928  and  _1931
REMARK  568  A    between atoms: _1931  and  _1932
REMARK  569  A    between atoms: _1937  and  _1938
REMARK  570  A    between atoms: _1948  and  _1949
REMARK  571  A    between atoms: _1949  and  _1950
REMARK  572  A    between atoms: _1949  and  _1952
REMARK  573  A    between atoms: _1952  and  _1953
REMARK  574  A    between atoms: _1959  and  _1960
REMARK  575  A    between atoms: _1960  and  _1961
REMARK  576  A    between atoms: _1960  and  _1963
REMARK  577  A    between atoms: _1969  and  _1970
REMARK  578  A    between atoms: _1970  and  _1971
REMARK  579  A    between atoms: _1970  and  _1973
REMARK  580  A    between atoms: _1973  and  _1974
REMARK  581  A    between atoms: _1979  and  _1980
REMARK  582  A    between atoms: _1990  and  _1991
REMARK  583  A    between atoms: _1991  and  _1992
REMARK  584  A    between atoms: _1991  and  _1994
REMARK  585  A    between atoms: _1994  and  _1995
REMARK  586  A    between atoms: _1995  and  _1996
REMARK  587  A    between atoms: _1995  and  _1997
REMARK  588  A    between atoms: _2009  and  _2010
REMARK  589  A    between atoms: _2010  and  _2011
REMARK  590  A    between atoms: _2010  and  _2013
REMARK  591  A    between atoms: _2013  and  _2014
REMARK  592  A    between atoms: _2013  and  _2015
REMARK  593  A    between atoms: _2025  and  _2026
REMARK  594  A    between atoms: _2026  and  _2027
REMARK  595  A    between atoms: _2026  and  _2029
REMARK  596  A    between atoms: _2035  and  _2036
REMARK  597  A    between atoms: _2036  and  _2037
REMARK  598  A    between atoms: _2036  and  _2039
REMARK  599  A    between atoms: _2039  and  _2040
REMARK  600  A    between atoms: _2040  and  _2041
REMARK  601  A    between atoms: _2050  and  _2051
REMARK  602  A    between atoms: _2051  and  _2052
REMARK  603  A    between atoms: _2051  and  _2054
REMARK  604  A    between atoms: _2054  and  _2055
REMARK  605  A    between atoms: _2055  and  _2056
REMARK  606  A    between atoms: _2056  and  _2057
REMARK  607  A    between atoms: _2057  and  _2058
REMARK  608  A    between atoms: _2072  and  _2073
REMARK  609  A    between atoms: _2073  and  _2074
REMARK  610  A    between atoms: _2073  and  _2076
REMARK  611  A    between atoms: _2076  and  _2077
REMARK  612  A    between atoms: _2076  and  _2078
REMARK  613  A    between atoms: _2088  and  _2089
REMARK  614  A    between atoms: _2089  and  _2090
REMARK  615  A    between atoms: _2089  and  _2092
REMARK  616  A    between atoms: _2092  and  _2093
REMARK  617  A    between atoms: _2092  and  _2094
REMARK  618  A    between atoms: _2102  and  _2103
REMARK  619  A    between atoms: _2103  and  _2104
REMARK  620  A    between atoms: _2103  and  _2106
REMARK  621  A    between atoms: _2106  and  _2107
REMARK  622  A    between atoms: _2106  and  _2108
REMARK  623  A    between atoms: _2118  and  _2119
REMARK  624  A    between atoms: _2119  and  _2120
REMARK  625  A    between atoms: _2119  and  _2122
REMARK  626  A    between atoms: _2122  and  _2123
REMARK  627  A    between atoms: _2122  and  _2124
REMARK  628  A    between atoms: _2123  and  _2125
REMARK  629  A    between atoms: _2137  and  _2138
REMARK  630  A    between atoms: _2138  and  _2139
REMARK  631  A    between atoms: _2138  and  _2141
REMARK  632  A    between atoms: _2141  and  _2142
REMARK  633  A    between atoms: _2141  and  _2143
REMARK  634  A    between atoms: _2151  and  _2152
REMARK  635  A    between atoms: _2152  and  _2153
REMARK  636  A    between atoms: _2152  and  _2155
REMARK  637  A    between atoms: _2155  and  _2156
REMARK  638  A    between atoms: _2156  and  _2157
REMARK  639  A    between atoms: _2157  and  _2158
REMARK  640  A    between atoms: _2158  and  _2159
REMARK  641  A    between atoms: _2173  and  _2174
REMARK  642  A    between atoms: _2174  and  _2175
REMARK  643  A    between atoms: _2174  and  _2177
REMARK  644  A    between atoms: _2177  and  _2178
REMARK  645  A    between atoms: _2190  and  _2191
REMARK  646  A    between atoms: _2191  and  _2192
REMARK  647  A    between atoms: _2191  and  _2194
REMARK  648  A    between atoms: _2194  and  _2195
REMARK  649  A    between atoms: _2204  and  _2205
REMARK  650  A    between atoms: _2205  and  _2206
REMARK  651  A    between atoms: _2205  and  _2208
REMARK  652  A    between atoms: _2208  and  _2209
REMARK  653  A    between atoms: _2216  and  _2217
REMARK  654  A    between atoms: _2217  and  _2218
REMARK  655  A    between atoms: _2217  and  _2220
REMARK  656  A    between atoms: _2220  and  _2221
REMARK  657  A    between atoms: _2228  and  _2229
REMARK  658  A    between atoms: _2229  and  _2230
REMARK  659  A    between atoms: _2229  and  _2232
REMARK  660  A    between atoms: _2232  and  _2233
REMARK  661  A    between atoms: _2233  and  _2234
REMARK  662  A    between atoms: _2243  and  _2244
REMARK  663  A    between atoms: _2244  and  _2245
REMARK  664  A    between atoms: _2244  and  _2247
REMARK  665  A    between atoms: _2247  and  _2248
REMARK  666  A    between atoms: _2248  and  _2249
REMARK  667  A    between atoms: _2260  and  _2261
REMARK  668  A    between atoms: _2261  and  _2262
REMARK  669  A    between atoms: _2261  and  _2264
REMARK  670  A    between atoms: _2264  and  _2265
REMARK  671  A    between atoms: _2270  and  _2271
REMARK  672  A    between atoms: _2281  and  _2282
REMARK  673  A    between atoms: _2282  and  _2283
REMARK  674  A    between atoms: _2282  and  _2285
REMARK  675  A    between atoms: _2291  and  _2292
REMARK  676  A    between atoms: _2292  and  _2293
REMARK  677  A    between atoms: _2292  and  _2295
REMARK  678  A    between atoms: _2295  and  _2296
REMARK  679  A    between atoms: _2315  and  _2316
REMARK  680  A    between atoms: _2316  and  _2317
REMARK  681  A    between atoms: _2316  and  _2319
REMARK  682  A    between atoms: _2319  and  _2320
REMARK  683  A    between atoms: _2320  and  _2321
REMARK  684  A    between atoms: _2330  and  _2331
REMARK  685  A    between atoms: _2331  and  _2332
REMARK  686  A    between atoms: _2331  and  _2334
REMARK  687  A    between atoms: _2334  and  _2335
REMARK  688  A    between atoms: _2341  and  _2342
REMARK  689  A    between atoms: _2342  and  _2343
REMARK  690  A    between atoms: _2342  and  _2345
REMARK  691  A    between atoms: _2345  and  _2346
REMARK  692  A    between atoms: _2352  and  _2353
REMARK  693  A    between atoms: _2353  and  _2354
REMARK  694  A    between atoms: _2353  and  _2356
REMARK  695  A    between atoms: _2362  and  _2363
REMARK  696  A    between atoms: _2363  and  _2364
REMARK  697  A    between atoms: _2369  and  _2370
REMARK  698  A    between atoms: _2370  and  _2371
REMARK  699  A    between atoms: _2376  and  _2377
REMARK  700  A    between atoms: _2377  and  _2378
REMARK  701  A    between atoms: _2377  and  _2380
REMARK  702  A    between atoms: _2380  and  _2381
REMARK  703  A    between atoms: _2387  and  _2388
REMARK  704  A    between atoms: _2388  and  _2389
REMARK  705  A    between atoms: _2388  and  _2391
REMARK  706  A    between atoms: _2391  and  _2392
REMARK  707  A    between atoms: _2407  and  _2408
REMARK  708  A    between atoms: _2408  and  _2409
REMARK  709  A    between atoms: _2408  and  _2411
REMARK  710  A    between atoms: _2411  and  _2412
REMARK  711  A    between atoms: _2411  and  _2413
REMARK  712  A    between atoms: _2421  and  _2422
REMARK  713  A    between atoms: _2422  and  _2423
REMARK  714  A    between atoms: _2422  and  _2425
REMARK  715  A    between atoms: _2425  and  _2426
REMARK  716  A    between atoms: _2425  and  _2427
REMARK  717  A    between atoms: _2437  and  _2438
REMARK  718  A    between atoms: _2438  and  _2439
REMARK  719  A    between atoms: _2438  and  _2441
REMARK  720  A    between atoms: _2441  and  _2442
REMARK  721  A    between atoms: _2442  and  _2443
REMARK  722  A    between atoms: _2443  and  _2444
REMARK  723  A    between atoms: _2461  and  _2462
REMARK  724  A    between atoms: _2462  and  _2463
REMARK  725  A    between atoms: _2462  and  _2465
REMARK  726  A    between atoms: _2465  and  _2466
REMARK  727  A    between atoms: _2465  and  _2467
REMARK  728  A    between atoms: _2475  and  _2476
REMARK  729  A    between atoms: _2476  and  _2477
REMARK  730  A    between atoms: _2476  and  _2479
REMARK  731  A    between atoms: _2479  and  _2480
REMARK  732  A    between atoms: _2487  and  _2488
REMARK  733  A    between atoms: _2488  and  _2489
REMARK  734  A    between atoms: _2488  and  _2491
REMARK  735  A    between atoms: _2491  and  _2492
REMARK  736  A    between atoms: _2491  and  _2493
REMARK  737  A    between atoms: _2501  and  _2502
REMARK  738  A    between atoms: _2502  and  _2503
REMARK  739  A    between atoms: _2508  and  _2509
REMARK  740  A    between atoms: _2509  and  _2510
REMARK  741  A    between atoms: _2509  and  _2512
REMARK  742  A    between atoms: _2512  and  _2513
REMARK  743  A    between atoms: _2513  and  _2514
REMARK  744  A    between atoms: _2524  and  _2525
REMARK  745  A    between atoms: _2537  and  _2538
REMARK  746  A    between atoms: _2538  and  _2539
REMARK  747  A    between atoms: _2538  and  _2541
REMARK  748  A    between atoms: _2541  and  _2542
REMARK  749  A    between atoms: _2542  and  _2543
REMARK  750  A    between atoms: _2543  and  _2544
REMARK  751  A    between atoms: _2554  and  _2555
REMARK  752  A    between atoms: _2555  and  _2556
REMARK  753  A    between atoms: _2561  and  _2562
REMARK  754  A    between atoms: _2562  and  _2563
REMARK  755  A    between atoms: _2562  and  _2565
REMARK  756  A    between atoms: _2565  and  _2566
REMARK  757  A    between atoms: _2566  and  _2567
REMARK  758  A    between atoms: _2567  and  _2568
REMARK  759  A    between atoms: _2585  and  _2586
REMARK  760  A    between atoms: _2586  and  _2587
REMARK  761  A    between atoms: _2592  and  _2593
REMARK  762  A    between atoms: _2593  and  _2594
REMARK  763  A    between atoms: _2593  and  _2596
REMARK  764  A    between atoms: _2596  and  _2597
REMARK  765  A    between atoms: _2596  and  _2598
REMARK  766  A    between atoms: _2606  and  _2607
REMARK  767  A    between atoms: _2607  and  _2608
REMARK  768  A    between atoms: _2607  and  _2610
REMARK  769  A    between atoms: _2610  and  _2611
REMARK  770  A    between atoms: _2611  and  _2612
REMARK  771  A    between atoms: _2612  and  _2613
REMARK  772  A    between atoms: _2613  and  _2614
REMARK  773  A    between atoms: _2628  and  _2629
REMARK  774  A    between atoms: _2629  and  _2630
REMARK  775  A    between atoms: _2629  and  _2632
REMARK  776  A    between atoms: _2632  and  _2633
REMARK  777  A    between atoms: _2632  and  _2634
REMARK  778  A    between atoms: _2644  and  _2645
REMARK  779  A    between atoms: _2645  and  _2646
REMARK  780  A    between atoms: _2645  and  _2648
REMARK  781  A    between atoms: _2648  and  _2649
REMARK  782  A    between atoms: _2648  and  _2650
REMARK  783  A    between atoms: _2649  and  _2651
REMARK  784  A    between atoms: _2663  and  _2664
REMARK  785  A    between atoms: _2664  and  _2665
REMARK  786  A    between atoms: _2664  and  _2667
REMARK  787  A    between atoms: _2667  and  _2668
REMARK  788  A    between atoms: _2668  and  _2669
REMARK  789  A    between atoms: _2668  and  _2670
REMARK  790  A    between atoms: _2682  and  _2683
REMARK  791  A    between atoms: _2683  and  _2684
REMARK  792  A    between atoms: _2683  and  _2686
REMARK  793  A    between atoms: _2686  and  _2687
REMARK  794  A    between atoms: _2699  and  _2700
REMARK  795  A    between atoms: _2700  and  _2701
REMARK  796  A    between atoms: _2700  and  _2703
REMARK  797  A    between atoms: _2703  and  _2704
REMARK  798  A    between atoms: _2704  and  _2705
REMARK  799  A    between atoms: _2704  and  _2706
REMARK  800  A    between atoms: _2718  and  _2719
REMARK  801  A    between atoms: _2719  and  _2720
REMARK  802  A    between atoms: _2719  and  _2722
REMARK  803  A    between atoms: _2722  and  _2723
REMARK  804  A    between atoms: _2723  and  _2724
REMARK  805  A    between atoms: _2724  and  _2725
REMARK  806  A    between atoms: _2725  and  _2726
REMARK  807  A    between atoms: _2740  and  _2741
REMARK  808  A    between atoms: _2741  and  _2742
REMARK  809  A    between atoms: _2741  and  _2744
REMARK  810  A    between atoms: _2744  and  _2745
REMARK  811  A    between atoms: _2745  and  _2746
REMARK  812  A    between atoms: _2755  and  _2756
REMARK  813  A    between atoms: _2756  and  _2757
REMARK  814  A    between atoms: _2756  and  _2759
REMARK  815  A    between atoms: _2759  and  _2760
REMARK  816  A    between atoms: _2767  and  _2768
REMARK  817  A    between atoms: _2768  and  _2769
REMARK  818  A    between atoms: _2768  and  _2771
REMARK  819  A    between atoms: _2771  and  _2772
REMARK  820  A    between atoms: _2772  and  _2773
REMARK  821  A    between atoms: _2784  and  _2785
REMARK  822  A    between atoms: _2785  and  _2786
REMARK  823  A    between atoms: _2785  and  _2788
REMARK  824  A    between atoms: _2788  and  _2789
REMARK  825  A    between atoms: _2788  and  _2790
REMARK  826  A    between atoms: _2798  and  _2799
REMARK  827  A    between atoms: _2799  and  _2800
REMARK  828  A    between atoms: _2799  and  _2802
REMARK  829  A    between atoms: _2802  and  _2803
REMARK  830  A    between atoms: _2803  and  _2804
REMARK  831  A    between atoms: _2813  and  _2814
REMARK  832  A    between atoms: _2814  and  _2815
REMARK  833  A    between atoms: _2814  and  _2817
REMARK  834  A    between atoms: _2817  and  _2818
REMARK  835  A    between atoms: _2823  and  _2824
REMARK  836  A    between atoms: _2834  and  _2835
REMARK  837  A    between atoms: _2835  and  _2838
REMARK  838  A    between atoms: _2838  and  _2839
REMARK  839  A    between atoms: _2839  and  _2840
REMARK  840  A    between atoms: _2839  and  _2841
REMARK  841  A    between atoms: _2884  and  _2885
REMARK  842  A    between atoms: _2884  and  _2887
REMARK  843  A    between atoms: _2887  and  _2888
REMARK  844  A    between atoms: _2888  and  _2889
REMARK  845  A    between atoms: _2899  and  _2900
REMARK  846  A    between atoms: _2900  and  _2901
REMARK  847  A    between atoms: _2900  and  _2903
REMARK  848  A    between atoms: _2903  and  _2904
REMARK  849  A    between atoms: _2904  and  _2905
REMARK  850  A    between atoms: _2905  and  _2906
REMARK  851  A    between atoms: _2923  and  _2924
REMARK  852  A    between atoms: _2924  and  _2925
REMARK  853  A    between atoms: _2924  and  _2927
REMARK  854  A    between atoms: _2927  and  _2928
REMARK  855  A    between atoms: _2928  and  _2929
REMARK  856  A    between atoms: _2929  and  _2930
REMARK  857  A    between atoms: _2947  and  _2948
REMARK  858  A    between atoms: _2948  and  _2949
REMARK  859  A    between atoms: _2948  and  _2951
REMARK  860  A    between atoms: _2951  and  _2952
REMARK  861  A    between atoms: _2951  and  _2953
REMARK  862  A    between atoms: _2952  and  _2954
REMARK  863  A    between atoms: _2966  and  _2967
REMARK  864  A    between atoms: _2967  and  _2968
REMARK  865  A    between atoms: _2967  and  _2970
REMARK  866  A    between atoms: _2970  and  _2971
REMARK  867  A    between atoms: _2971  and  _2972
REMARK  868  A    between atoms: _2972  and  _2973
REMARK  869  A    between atoms: _2973  and  _2974
REMARK  870  A    between atoms: _2988  and  _2989
REMARK  871  A    between atoms: _2989  and  _2990
REMARK  872  A    between atoms: _2989  and  _2992
REMARK  873  A    between atoms: _2992  and  _2993
REMARK  874  A    between atoms: _2993  and  _2994
REMARK  875  A    between atoms: _3003  and  _3004
REMARK  876  A    between atoms: _3004  and  _3005
REMARK  877  A    between atoms: _3004  and  _3007
REMARK  878  A    between atoms: _3007  and  _3008
REMARK  879  A    between atoms: _3007  and  _3009
REMARK  880  A    between atoms: _3008  and  _3010
REMARK  881  A    between atoms: _3022  and  _3023
REMARK  882  A    between atoms: _3023  and  _3024
REMARK  883  A    between atoms: _3023  and  _3026
REMARK  884  A    between atoms: _3026  and  _3027
REMARK  885  A    between atoms: _3026  and  _3028
REMARK  886  A    between atoms: _3038  and  _3039
REMARK  887  A    between atoms: _3039  and  _3040
REMARK  888  A    between atoms: _3039  and  _3042
REMARK  889  A    between atoms: _3042  and  _3043
REMARK  890  A    between atoms: _3043  and  _3044
REMARK  891  A    between atoms: _3044  and  _3045
REMARK  892  A    between atoms: _3045  and  _3046
REMARK  893  A    between atoms: _3060  and  _3061
REMARK  894  A    between atoms: _3061  and  _3062
REMARK  895  A    between atoms: _3061  and  _3064
REMARK  896  A    between atoms: _3064  and  _3065
REMARK  897  A    between atoms: _3065  and  _3066
REMARK  898  A    between atoms: _3066  and  _3067
REMARK  899  A    between atoms: _3067  and  _3068
REMARK  900  A    between atoms: _3082  and  _3083
REMARK  901  A    between atoms: _3083  and  _3084
REMARK  902  A    between atoms: _3083  and  _3086
REMARK  903  A    between atoms: _3086  and  _3087
REMARK  904  A    between atoms: _3099  and  _3100
REMARK  905  A    between atoms: _3100  and  _3101
REMARK  906  A    between atoms: _3100  and  _3103
REMARK  907  A    between atoms: _3103  and  _3104
REMARK  908  A    between atoms: _3110  and  _3111
REMARK  909  A    between atoms: _3111  and  _3112
REMARK  910  A    between atoms: _3111  and  _3114
REMARK  911  A    between atoms: _3114  and  _3115
REMARK  912  A    between atoms: _3115  and  _3116
REMARK  913  A    between atoms: _3127  and  _3128
REMARK  914  A    between atoms: _3128  and  _3129
REMARK  915  A    between atoms: _3128  and  _3131
REMARK  916  A    between atoms: _3131  and  _3132
REMARK  917  A    between atoms: _3147  and  _3148
REMARK  918  A    between atoms: _3148  and  _3149
REMARK  919  A    between atoms: _3148  and  _3151
REMARK  920  A    between atoms: _3151  and  _3152
REMARK  921  A    between atoms: _3151  and  _3153
REMARK  922  A    between atoms: _3152  and  _3154
REMARK  923  A    between atoms: _3166  and  _3167
REMARK  924  A    between atoms: _3167  and  _3168
REMARK  925  A    between atoms: _3173  and  _3174
REMARK  926  A    between atoms: _3174  and  _3175
REMARK  927  A    between atoms: _3174  and  _3177
REMARK  928  A    between atoms: _3177  and  _3178
REMARK  929  A    between atoms: _3183  and  _3184
REMARK  930  A    between atoms: _3195  and  _3196
REMARK  931  A    between atoms: _3208  and  _3209
REMARK  932  A    between atoms: _3209  and  _3210
REMARK  933  A    between atoms: _3209  and  _3212
REMARK  934  A    between atoms: _3212  and  _3213
REMARK  935  A    between atoms: _3212  and  _3214
REMARK  936  A    between atoms: _3213  and  _3215
REMARK  937  A    between atoms: _3227  and  _3228
REMARK  938  A    between atoms: _3228  and  _3229
REMARK  939  A    between atoms: _3228  and  _3231
REMARK  940  A    between atoms: _3231  and  _3232
REMARK  941  A    between atoms: _3231  and  _3233
REMARK  942  A    between atoms: _3241  and  _3242
REMARK  943  A    between atoms: _3242  and  _3243
REMARK  944  A    between atoms: _3242  and  _3245
REMARK  945  A    between atoms: _3245  and  _3246
REMARK  946  A    between atoms: _3246  and  _3247
REMARK  947  A    between atoms: _3246  and  _3248
REMARK  948  A    between atoms: _3260  and  _3261
REMARK  949  A    between atoms: _3261  and  _3262
REMARK  950  A    between atoms: _3261  and  _3264
REMARK  951  A    between atoms: _3264  and  _3265
REMARK  952  A    between atoms: _3280  and  _3281
REMARK  953  A    between atoms: _3281  and  _3282
REMARK  954  A    between atoms: _3281  and  _3284
REMARK  955  A    between atoms: _3284  and  _3285
REMARK  956  A    between atoms: _3284  and  _3286
REMARK  957  A    between atoms: _3296  and  _3297
REMARK  958  A    between atoms: _3297  and  _3298
REMARK  959  A    between atoms: _3297  and  _3300
REMARK  960  A    between atoms: _3300  and  _3301
REMARK  961  A    between atoms: _3301  and  _3302
REMARK                            x       y       z     vdW  Elec       q    Type
REMARK                         _______ _______ _______ _____ _____    ______ ____
ROOT
ATOM      1  C   UNL     1       5.608  37.148  41.403  0.00  0.00    +0.279 C 
ATOM      2  O   UNL     1       4.615  37.503  40.768  0.00  0.00    -0.279 OA
ENDROOT
TORSDOF 0
REMARK  Name = /Users/mlugowska/PhD/ML_residence_time_prediction/protein_files/5J20_protein.pdb
REMARK  961 active torsions:
REMARK  status: ('A' for Active; 'I' for Inactive)
REMARK    1  A    between atoms: _2  and  _3
REMARK    2  A    between atoms: _2  and  _5
REMARK    3  A    between atoms: _10  and  _11
REMARK    4  A    between atoms: _11  and  _12
REMARK    5  A    between atoms: _11  and  _14
REMARK    6  A    between atoms: _14  and  _15
REMARK    7  A    between atoms: _14  and  _16
REMARK    8  A    between atoms: _26  and  _27
REMARK    9  A    between atoms: _27  and  _28
REMARK   10  A    between atoms: _27  and  _30
REMARK   11  A    between atoms: _30  and  _31
REMARK   12  A    between atoms: _31  and  _32
REMARK   13  A    between atoms: _41  and  _42
REMARK   14  A    between atoms: _42  and  _43
REMARK   15  A    between atoms: _42  and  _45
REMARK   16  A    between atoms: _45  and  _46
REMARK   17  A    between atoms: _45  and  _47
REMARK   18  A    between atoms: _55  and  _56
REMARK   19  A    between atoms: _56  and  _57
REMARK   20  A    between atoms: _56  and  _59
REMARK   21  A    between atoms: _59  and  _60
REMARK   22  A    between atoms: _75  and  _76
REMARK   23  A    between atoms: _76  and  _77
REMARK   24  A    between atoms: _76  and  _79
REMARK   25  A    between atoms: _85  and  _86
REMARK   26  A    between atoms: _86  and  _87
REMARK   27  A    between atoms: _86  and  _89
REMARK   28  A    between atoms: _89  and  _90
REMARK   29  A    between atoms: _105  and  _106
REMARK   30  A    between atoms: _106  and  _107
REMARK   31  A    between atoms: _106  and  _109
REMARK   32  A    between atoms: _109  and  _110
REMARK   33  A    between atoms: _110  and  _111
REMARK   34  A    between atoms: _122  and  _123
REMARK   35  A    between atoms: _123  and  _124
REMARK   36  A    between atoms: _123  and  _126
REMARK   37  A    between atoms: _132  and  _133
REMARK   38  A    between atoms: _133  and  _134
REMARK   39  A    between atoms: _133  and  _136
REMARK   40  A    between atoms: _136  and  _137
REMARK   41  A    between atoms: _137  and  _138
REMARK   42  A    between atoms: _147  and  _148
REMARK   43  A    between atoms: _148  and  _149
REMARK   44  A    between atoms: _148  and  _151
REMARK   45  A    between atoms: _151  and  _152
REMARK   46  A    between atoms: _151  and  _153
REMARK   47  A    between atoms: _152  and  _154
REMARK   48  A    between atoms: _166  and  _167
REMARK   49  A    between atoms: _167  and  _168
REMARK   50  A    between atoms: _167  and  _170
REMARK   51  A    between atoms: _176  and  _177
REMARK   52  A    between atoms: _177  and  _178
REMARK   53  A    between atoms: _177  and  _180
REMARK   54  A    between atoms: _180  and  _181
REMARK   55  A    between atoms: _181  and  _182
REMARK   56  A    between atoms: _193  and  _194
REMARK   57  A    between atoms: _194  and  _195
REMARK   58  A    between atoms: _194  and  _197
REMARK   59  A    between atoms: _197  and  _198
REMARK   60  A    between atoms: _198  and  _199
REMARK   61  A    between atoms: _198  and  _200
REMARK   62  A    between atoms: _212  and  _213
REMARK   63  A    between atoms: _213  and  _214
REMARK   64  A    between atoms: _213  and  _216
REMARK   65  A    between atoms: _216  and  _217
REMARK   66  A    between atoms: _217  and  _218
REMARK   67  A    between atoms: _218  and  _219
REMARK   68  A    between atoms: _229  and  _230
REMARK   69  A    between atoms: _230  and  _231
REMARK   70  A    between atoms: _230  and  _233
REMARK   71  A    between atoms: _233  and  _234
REMARK   72  A    between atoms: _240  and  _241
REMARK   73  A    between atoms: _241  and  _242
REMARK   74  A    between atoms: _241  and  _244
REMARK   75  A    between atoms: _244  and  _245
REMARK   76  A    between atoms: _245  and  _246
REMARK   77  A    between atoms: _245  and  _247
REMARK   78  A    between atoms: _259  and  _260
REMARK   79  A    between atoms: _260  and  _261
REMARK   80  A    between atoms: _260  and  _263
REMARK   81  A    between atoms: _263  and  _264
REMARK   82  A    between atoms: _263  and  _265
REMARK   83  A    between atoms: _264  and  _266
REMARK   84  A    between atoms: _278  and  _279
REMARK   85  A    between atoms: _279  and  _280
REMARK   86  A    between atoms: _279  and  _282
REMARK   87  A    between atoms: _282  and  _283
REMARK   88  A    between atoms: _282  and  _284
REMARK   89  A    between atoms: _283  and  _285
REMARK   90  A    between atoms: _297  and  _298
REMARK   91  A    between atoms: _298  and  _299
REMARK   92  A    between atoms: _298  and  _301
REMARK   93  A    between atoms: _301  and  _302
REMARK   94  A    between atoms: _311  and  _312
REMARK   95  A    between atoms: _312  and  _313
REMARK   96  A    between atoms: _312  and  _315
REMARK   97  A    between atoms: _315  and  _316
REMARK   98  A    between atoms: _315  and  _317
REMARK   99  A    between atoms: _325  and  _326
REMARK  100  A    between atoms: _326  and  _327
REMARK  101  A    between atoms: _326  and  _329
REMARK  102  A    between atoms: _329  and  _330
REMARK  103  A    between atoms: _345  and  _346
REMARK  104  A    between atoms: _346  and  _347
REMARK  105  A    between atoms: _346  and  _349
REMARK  106  A    between atoms: _349  and  _350
REMARK  107  A    between atoms: _355  and  _356
REMARK  108  A    between atoms: _366  and  _367
REMARK  109  A    between atoms: _367  and  _368
REMARK  110  A    between atoms: _367  and  _370
REMARK  111  A    between atoms: _370  and  _371
REMARK  112  A    between atoms: _377  and  _378
REMARK  113  A    between atoms: _378  and  _379
REMARK  114  A    between atoms: _378  and  _381
REMARK  115  A    between atoms: _381  and  _382
REMARK  116  A    between atoms: _391  and  _392
REMARK  117  A    between atoms: _392  and  _393
REMARK  118  A    between atoms: _392  and  _395
REMARK  119  A    between atoms: _395  and  _396
REMARK  120  A    between atoms: _396  and  _397
REMARK  121  A    between atoms: _397  and  _398
REMARK  122  A    between atoms: _398  and  _399
REMARK  123  A    between atoms: _413  and  _414
REMARK  124  A    between atoms: _414  and  _415
REMARK  125  A    between atoms: _414  and  _417
REMARK  126  A    between atoms: _417  and  _418
REMARK  127  A    between atoms: _418  and  _419
REMARK  128  A    between atoms: _428  and  _429
REMARK  129  A    between atoms: _429  and  _430
REMARK  130  A    between atoms: _429  and  _432
REMARK  131  A    between atoms: _432  and  _433
REMARK  132  A    between atoms: _432  and  _434
REMARK  133  A    between atoms: _433  and  _435
REMARK  134  A    between atoms: _447  and  _448
REMARK  135  A    between atoms: _448  and  _449
REMARK  136  A    between atoms: _448  and  _451
REMARK  137  A    between atoms: _451  and  _452
REMARK  138  A    between atoms: _467  and  _468
REMARK  139  A    between atoms: _468  and  _469
REMARK  140  A    between atoms: _468  and  _471
REMARK  141  A    between atoms: _471  and  _472
REMARK  142  A    between atoms: _472  and  _473
REMARK  143  A    between atoms: _472  and  _474
REMARK  144  A    between atoms: _486  and  _487
REMARK  145  A    between atoms: _487  and  _488
REMARK  146  A    between atoms: _487  and  _490
REMARK  147  A    between atoms: _490  and  _491
REMARK  148  A    between atoms: _491  and  _492
REMARK  149  A    between atoms: _492  and  _493
REMARK  150  A    between atoms: _510  and  _511
REMARK  151  A    between atoms: _511  and  _512
REMARK  152  A    between atoms: _511  and  _514
REMARK  153  A    between atoms: _514  and  _515
REMARK  154  A    between atoms: _515  and  _516
REMARK  155  A    between atoms: _525  and  _526
REMARK  156  A    between atoms: _526  and  _527
REMARK  157  A    between atoms: _526  and  _529
REMARK  158  A    between atoms: _529  and  _530
REMARK  159  A    between atoms: _530  and  _531
REMARK  160  A    between atoms: _530  and  _532
REMARK  161  A    between atoms: _544  and  _545
REMARK  162  A    between atoms: _545  and  _546
REMARK  163  A    between atoms: _545  and  _548
REMARK  164  A    between atoms: _548  and  _549
REMARK  165  A    between atoms: _548  and  _550
REMARK  166  A    between atoms: _549  and  _551
REMARK  167  A    between atoms: _563  and  _564
REMARK  168  A    between atoms: _564  and  _565
REMARK  169  A    between atoms: _564  and  _567
REMARK  170  A    between atoms: _567  and  _568
REMARK  171  A    between atoms: _574  and  _575
REMARK  172  A    between atoms: _575  and  _576
REMARK  173  A    between atoms: _575  and  _578
REMARK  174  A    between atoms: _578  and  _579
REMARK  175  A    between atoms: _588  and  _589
REMARK  176  A    between atoms: _589  and  _590
REMARK  177  A    between atoms: _589  and  _592
REMARK  178  A    between atoms: _592  and  _593
REMARK  179  A    between atoms: _599  and  _600
REMARK  180  A    between atoms: _600  and  _601
REMARK  181  A    between atoms: _600  and  _603
REMARK  182  A    between atoms: _603  and  _604
REMARK  183  A    between atoms: _610  and  _611
REMARK  184  A    between atoms: _611  and  _612
REMARK  185  A    between atoms: _611  and  _614
REMARK  186  A    between atoms: _614  and  _615
REMARK  187  A    between atoms: _622  and  _623
REMARK  188  A    between atoms: _623  and  _624
REMARK  189  A    between atoms: _623  and  _626
REMARK  190  A    between atoms: _632  and  _633
REMARK  191  A    between atoms: _633  and  _634
REMARK  192  A    between atoms: _633  and  _636
REMARK  193  A    between atoms: _636  and  _637
REMARK  194  A    between atoms: _637  and  _638
REMARK  195  A    between atoms: _637  and  _639
REMARK  196  A    between atoms: _651  and  _652
REMARK  197  A    between atoms: _652  and  _653
REMARK  198  A    between atoms: _652  and  _655
REMARK  199  A    between atoms: _655  and  _656
REMARK  200  A    between atoms: _663  and  _664
REMARK  201  A    between atoms: _664  and  _665
REMARK  202  A    between atoms: _664  and  _667
REMARK  203  A    between atoms: _667  and  _668
REMARK  204  A    between atoms: _668  and  _669
REMARK  205  A    between atoms: _669  and  _670
REMARK  206  A    between atoms: _670  and  _671
REMARK  207  A    between atoms: _685  and  _686
REMARK  208  A    between atoms: _686  and  _687
REMARK  209  A    between atoms: _686  and  _689
REMARK  210  A    between atoms: _689  and  _690
REMARK  211  A    between atoms: _689  and  _691
REMARK  212  A    between atoms: _690  and  _692
REMARK  213  A    between atoms: _704  and  _705
REMARK  214  A    between atoms: _705  and  _706
REMARK  215  A    between atoms: _705  and  _708
REMARK  216  A    between atoms: _708  and  _709
REMARK  217  A    between atoms: _709  and  _710
REMARK  218  A    between atoms: _710  and  _711
REMARK  219  A    between atoms: _728  and  _729
REMARK  220  A    between atoms: _729  and  _730
REMARK  221  A    between atoms: _729  and  _732
REMARK  222  A    between atoms: _732  and  _733
REMARK  223  A    between atoms: _738  and  _739
REMARK  224  A    between atoms: _749  and  _750
REMARK  225  A    between atoms: _750  and  _751
REMARK  226  A    between atoms: _750  and  _753
REMARK  227  A    between atoms: _753  and  _754
REMARK  228  A    between atoms: _754  and  _755
REMARK  229  A    between atoms: _764  and  _765
REMARK  230  A    between atoms: _765  and  _766
REMARK  231  A    between atoms: _765  and  _768
REMARK  232  A    between atoms: _772  and  _773
REMARK  233  A    between atoms: _773  and  _774
REMARK  234  A    between atoms: _773  and  _776
REMARK  235  A    between atoms: _776  and  _777
REMARK  236  A    between atoms: _777  and  _778
REMARK  237  A    between atoms: _777  and  _779
REMARK  238  A    between atoms: _791  and  _792
REMARK  239  A    between atoms: _792  and  _793
REMARK  240  A    between atoms: _792  and  _795
REMARK  241  A    between atoms: _795  and  _796
REMARK  242  A    between atoms: _795  and  _797
REMARK  243  A    between atoms: _805  and  _806
REMARK  244  A    between atoms: _806  and  _807
REMARK  245  A    between atoms: _806  and  _809
REMARK  246  A    between atoms: _809  and  _810
REMARK  247  A    between atoms: _818  and  _819
REMARK  248  A    between atoms: _831  and  _832
REMARK  249  A    between atoms: _832  and  _833
REMARK  250  A    between atoms: _832  and  _835
REMARK  251  A    between atoms: _835  and  _836
REMARK  252  A    between atoms: _842  and  _843
REMARK  253  A    between atoms: _843  and  _844
REMARK  254  A    between atoms: _843  and  _846
REMARK  255  A    between atoms: _846  and  _847
REMARK  256  A    between atoms: _847  and  _848
REMARK  257  A    between atoms: _848  and  _849
REMARK  258  A    between atoms: _849  and  _850
REMARK  259  A    between atoms: _864  and  _865
REMARK  260  A    between atoms: _865  and  _866
REMARK  261  A    between atoms: _865  and  _868
REMARK  262  A    between atoms: _868  and  _869
REMARK  263  A    between atoms: _869  and  _870
REMARK  264  A    between atoms: _869  and  _871
REMARK  265  A    between atoms: _883  and  _884
REMARK  266  A    between atoms: _884  and  _885
REMARK  267  A    between atoms: _884  and  _887
REMARK  268  A    between atoms: _887  and  _888
REMARK  269  A    between atoms: _895  and  _896
REMARK  270  A    between atoms: _896  and  _897
REMARK  271  A    between atoms: _896  and  _899
REMARK  272  A    between atoms: _899  and  _900
REMARK  273  A    between atoms: _906  and  _907
REMARK  274  A    between atoms: _907  and  _908
REMARK  275  A    between atoms: _913  and  _914
REMARK  276  A    between atoms: _914  and  _915
REMARK  277  A    between atoms: _914  and  _917
REMARK  278  A    between atoms: _917  and  _918
REMARK  279  A    between atoms: _918  and  _919
REMARK  280  A    between atoms: _919  and  _920
REMARK  281  A    between atoms: _920  and  _921
REMARK  282  A    between atoms: _935  and  _936
REMARK  283  A    between atoms: _936  and  _937
REMARK  284  A    between atoms: _936  and  _939
REMARK  285  A    between atoms: _939  and  _940
REMARK  286  A    between atoms: _940  and  _941
REMARK  287  A    between atoms: _950  and  _951
REMARK  288  A    between atoms: _951  and  _952
REMARK  289  A    between atoms: _951  and  _954
REMARK  290  A    between atoms: _954  and  _955
REMARK  291  A    between atoms: _955  and  _956
REMARK  292  A    between atoms: _955  and  _957
REMARK  293  A    between atoms: _969  and  _970
REMARK  294  A    between atoms: _970  and  _971
REMARK  295  A    between atoms: _970  and  _973
REMARK  296  A    between atoms: _973  and  _974
REMARK  297  A    between atoms: _986  and  _987
REMARK  298  A    between atoms: _987  and  _988
REMARK  299  A    between atoms: _987  and  _990
REMARK  300  A    between atoms: _990  and  _991
REMARK  301  A    between atoms: _990  and  _992
REMARK  302  A    between atoms: _991  and  _993
REMARK  303  A    between atoms: _1005  and  _1006
REMARK  304  A    between atoms: _1006  and  _1007
REMARK  305  A    between atoms: _1006  and  _1009
REMARK  306  A    between atoms: _1009  and  _1010
REMARK  307  A    between atoms: _1019  and  _1020
REMARK  308  A    between atoms: _1020  and  _1021
REMARK  309  A    between atoms: _1020  and  _1023
REMARK  310  A    between atoms: _1023  and  _1024
REMARK  311  A    between atoms: _1024  and  _1025
REMARK  312  A    between atoms: _1024  and  _1026
REMARK  313  A    between atoms: _1038  and  _1039
REMARK  314  A    between atoms: _1039  and  _1040
REMARK  315  A    between atoms: _1039  and  _1042
REMARK  316  A    between atoms: _1042  and  _1043
REMARK  317  A    between atoms: _1042  and  _1044
REMARK  318  A    between atoms: _1043  and  _1045
REMARK  319  A    between atoms: _1058  and  _1059
REMARK  320  A    between atoms: _1071  and  _1072
REMARK  321  A    between atoms: _1072  and  _1073
REMARK  322  A    between atoms: _1072  and  _1075
REMARK  323  A    between atoms: _1075  and  _1076
REMARK  324  A    between atoms: _1085  and  _1086
REMARK  325  A    between atoms: _1086  and  _1087
REMARK  326  A    between atoms: _1086  and  _1089
REMARK  327  A    between atoms: _1089  and  _1090
REMARK  328  A    between atoms: _1090  and  _1091
REMARK  329  A    between atoms: _1091  and  _1092
REMARK  330  A    between atoms: _1092  and  _1093
REMARK  331  A    between atoms: _1107  and  _1108
REMARK  332  A    between atoms: _1108  and  _1109
REMARK  333  A    between atoms: _1108  and  _1111
REMARK  334  A    between atoms: _1111  and  _1112
REMARK  335  A    between atoms: _1112  and  _1113
REMARK  336  A    between atoms: _1124  and  _1125
REMARK  337  A    between atoms: _1125  and  _1126
REMARK  338  A    between atoms: _1125  and  _1128
REMARK  339  A    between atoms: _1128  and  _1129
REMARK  340  A    between atoms: _1136  and  _1137
REMARK  341  A    between atoms: _1137  and  _1138
REMARK  342  A    between atoms: _1137  and  _1140
REMARK  343  A    between atoms: _1140  and  _1141
REMARK  344  A    between atoms: _1141  and  _1142
REMARK  345  A    between atoms: _1142  and  _1143
REMARK  346  A    between atoms: _1160  and  _1161
REMARK  347  A    between atoms: _1161  and  _1162
REMARK  348  A    between atoms: _1161  and  _1164
REMARK  349  A    between atoms: _1164  and  _1165
REMARK  350  A    between atoms: _1164  and  _1166
REMARK  351  A    between atoms: _1174  and  _1175
REMARK  352  A    between atoms: _1175  and  _1176
REMARK  353  A    between atoms: _1175  and  _1178
REMARK  354  A    between atoms: _1178  and  _1179
REMARK  355  A    between atoms: _1179  and  _1180
REMARK  356  A    between atoms: _1179  and  _1181
REMARK  357  A    between atoms: _1193  and  _1194
REMARK  358  A    between atoms: _1194  and  _1195
REMARK  359  A    between atoms: _1194  and  _1197
REMARK  360  A    between atoms: _1197  and  _1198
REMARK  361  A    between atoms: _1197  and  _1199
REMARK  362  A    between atoms: _1207  and  _1208
REMARK  363  A    between atoms: _1208  and  _1209
REMARK  364  A    between atoms: _1208  and  _1211
REMARK  365  A    between atoms: _1211  and  _1212
REMARK  366  A    between atoms: _1211  and  _1213
REMARK  367  A    between atoms: _1212  and  _1214
REMARK  368  A    between atoms: _1226  and  _1227
REMARK  369  A    between atoms: _1227  and  _1228
REMARK  370  A    between atoms: _1227  and  _1230
REMARK  371  A    between atoms: _1230  and  _1231
REMARK  372  A    between atoms: _1230  and  _1232
REMARK  373  A    between atoms: _1242  and  _1243
REMARK  374  A    between atoms: _1243  and  _1244
REMARK  375  A    between atoms: _1243  and  _1246
REMARK  376  A    between atoms: _1246  and  _1247
REMARK  377  A    between atoms: _1254  and  _1255
REMARK  378  A    between atoms: _1255  and  _1256
REMARK  379  A    between atoms: _1255  and  _1258
REMARK  380  A    between atoms: _1258  and  _1259
REMARK  381  A    between atoms: _1258  and  _1260
REMARK  382  A    between atoms: _1268  and  _1269
REMARK  383  A    between atoms: _1269  and  _1270
REMARK  384  A    between atoms: _1275  and  _1276
REMARK  385  A    between atoms: _1276  and  _1277
REMARK  386  A    between atoms: _1276  and  _1279
REMARK  387  A    between atoms: _1279  and  _1280
REMARK  388  A    between atoms: _1279  and  _1281
REMARK  389  A    between atoms: _1280  and  _1282
REMARK  390  A    between atoms: _1294  and  _1295
REMARK  391  A    between atoms: _1295  and  _1296
REMARK  392  A    between atoms: _1301  and  _1302
REMARK  393  A    between atoms: _1302  and  _1303
REMARK  394  A    between atoms: _1302  and  _1305
REMARK  395  A    between atoms: _1305  and  _1306
REMARK  396  A    between atoms: _1306  and  _1307
REMARK  397  A    between atoms: _1307  and  _1308
REMARK  398  A    between atoms: _1318  and  _1319
REMARK  399  A    between atoms: _1319  and  _1320
REMARK  400  A    between atoms: _1319  and  _1322
REMARK  401  A    between atoms: _1322  and  _1323
REMARK  402  A    between atoms: _1322  and  _1324
REMARK  403  A    between atoms: _1332  and  _1333
REMARK  404  A    between atoms: _1333  and  _1334
REMARK  405  A    between atoms: _1333  and  _1336
REMARK  406  A    between atoms: _1336  and  _1337
REMARK  407  A    between atoms: _1337  and  _1338
REMARK  408  A    between atoms: _1338  and  _1339
REMARK  409  A    between atoms: _1339  and  _1340
REMARK  410  A    between atoms: _1354  and  _1355
REMARK  411  A    between atoms: _1355  and  _1356
REMARK  412  A    between atoms: _1355  and  _1358
REMARK  413  A    between atoms: _1364  and  _1365
REMARK  414  A    between atoms: _1365  and  _1366
REMARK  415  A    between atoms: _1365  and  _1368
REMARK  416  A    between atoms: _1368  and  _1369
REMARK  417  A    between atoms: _1376  and  _1377
REMARK  418  A    between atoms: _1377  and  _1378
REMARK  419  A    between atoms: _1377  and  _1380
REMARK  420  A    between atoms: _1380  and  _1381
REMARK  421  A    between atoms: _1381  and  _1382
REMARK  422  A    between atoms: _1381  and  _1383
REMARK  423  A    between atoms: _1395  and  _1396
REMARK  424  A    between atoms: _1396  and  _1399
REMARK  425  A    between atoms: _1399  and  _1400
REMARK  426  A    between atoms: _1399  and  _1401
REMARK  427  A    between atoms: _1400  and  _1402
REMARK  428  A    between atoms: _1422  and  _1425
REMARK  429  A    between atoms: _1424  and  _1428
REMARK  430  A    between atoms: _1425  and  _1427
REMARK  431  A    between atoms: _1443  and  _1444
REMARK  432  A    between atoms: _1443  and  _1446
REMARK  433  A    between atoms: _1446  and  _1447
REMARK  434  A    between atoms: _1457  and  _1458
REMARK  435  A    between atoms: _1458  and  _1459
REMARK  436  A    between atoms: _1458  and  _1461
REMARK  437  A    between atoms: _1461  and  _1462
REMARK  438  A    between atoms: _1462  and  _1463
REMARK  439  A    between atoms: _1462  and  _1464
REMARK  440  A    between atoms: _1476  and  _1477
REMARK  441  A    between atoms: _1477  and  _1478
REMARK  442  A    between atoms: _1483  and  _1484
REMARK  443  A    between atoms: _1484  and  _1485
REMARK  444  A    between atoms: _1484  and  _1487
REMARK  445  A    between atoms: _1487  and  _1488
REMARK  446  A    between atoms: _1487  and  _1489
REMARK  447  A    between atoms: _1497  and  _1498
REMARK  448  A    between atoms: _1498  and  _1499
REMARK  449  A    between atoms: _1498  and  _1501
REMARK  450  A    between atoms: _1501  and  _1502
REMARK  451  A    between atoms: _1501  and  _1503
REMARK  452  A    between atoms: _1502  and  _1504
REMARK  453  A    between atoms: _1516  and  _1517
REMARK  454  A    between atoms: _1517  and  _1518
REMARK  455  A    between atoms: _1517  and  _1520
REMARK  456  A    between atoms: _1526  and  _1527
REMARK  457  A    between atoms: _1527  and  _1528
REMARK  458  A    between atoms: _1527  and  _1530
REMARK  459  A    between atoms: _1530  and  _1531
REMARK  460  A    between atoms: _1531  and  _1532
REMARK  461  A    between atoms: _1532  and  _1533
REMARK  462  A    between atoms: _1533  and  _1534
REMARK  463  A    between atoms: _1548  and  _1549
REMARK  464  A    between atoms: _1549  and  _1550
REMARK  465  A    between atoms: _1549  and  _1552
REMARK  466  A    between atoms: _1552  and  _1553
REMARK  467  A    between atoms: _1559  and  _1560
REMARK  468  A    between atoms: _1560  and  _1561
REMARK  469  A    between atoms: _1566  and  _1567
REMARK  470  A    between atoms: _1567  and  _1568
REMARK  471  A    between atoms: _1567  and  _1570
REMARK  472  A    between atoms: _1570  and  _1571
REMARK  473  A    between atoms: _1570  and  _1572
REMARK  474  A    between atoms: _1580  and  _1581
REMARK  475  A    between atoms: _1581  and  _1582
REMARK  476  A    between atoms: _1581  and  _1584
REMARK  477  A    between atoms: _1584  and  _1585
REMARK  478  A    between atoms: _1585  and  _1586
REMARK  479  A    between atoms: _1586  and  _1587
REMARK  480  A    between atoms: _1587  and  _1588
REMARK  481  A    between atoms: _1602  and  _1603
REMARK  482  A    between atoms: _1603  and  _1604
REMARK  483  A    between atoms: _1603  and  _1606
REMARK  484  A    between atoms: _1612  and  _1613
REMARK  485  A    between atoms: _1613  and  _1614
REMARK  486  A    between atoms: _1613  and  _1616
REMARK  487  A    between atoms: _1616  and  _1617
REMARK  488  A    between atoms: _1632  and  _1633
REMARK  489  A    between atoms: _1633  and  _1634
REMARK  490  A    between atoms: _1633  and  _1636
REMARK  491  A    between atoms: _1636  and  _1637
REMARK  492  A    between atoms: _1637  and  _1638
REMARK  493  A    between atoms: _1638  and  _1639
REMARK  494  A    between atoms: _1649  and  _1650
REMARK  495  A    between atoms: _1650  and  _1651
REMARK  496  A    between atoms: _1650  and  _1653
REMARK  497  A    between atoms: _1653  and  _1654
REMARK  498  A    between atoms: _1654  and  _1655
REMARK  499  A    between atoms: _1664  and  _1665
REMARK  500  A    between atoms: _1665  and  _1666
REMARK  501  A    between atoms: _1665  and  _1668
REMARK  502  A    between atoms: _1674  and  _1675
REMARK  503  A    between atoms: _1675  and  _1676
REMARK  504  A    between atoms: _1675  and  _1678
REMARK  505  A    between atoms: _1678  and  _1679
REMARK  506  A    between atoms: _1679  and  _1680
REMARK  507  A    between atoms: _1679  and  _1681
REMARK  508  A    between atoms: _1693  and  _1694
REMARK  509  A    between atoms: _1694  and  _1695
REMARK  510  A    between atoms: _1694  and  _1697
REMARK  511  A    between atoms: _1697  and  _1698
REMARK  512  A    between atoms: _1698  and  _1699
REMARK  513  A    between atoms: _1710  and  _1711
REMARK  514  A    between atoms: _1711  and  _1712
REMARK  515  A    between atoms: _1711  and  _1714
REMARK  516  A    between atoms: _1720  and  _1721
REMARK  517  A    between atoms: _1721  and  _1722
REMARK  518  A    between atoms: _1727  and  _1728
REMARK  519  A    between atoms: _1728  and  _1729
REMARK  520  A    between atoms: _1728  and  _1731
REMARK  521  A    between atoms: _1737  and  _1738
REMARK  522  A    between atoms: _1738  and  _1739
REMARK  523  A    between atoms: _1738  and  _1741
REMARK  524  A    between atoms: _1741  and  _1742
REMARK  525  A    between atoms: _1749  and  _1750
REMARK  526  A    between atoms: _1750  and  _1751
REMARK  527  A    between atoms: _1750  and  _1753
REMARK  528  A    between atoms: _1753  and  _1754
REMARK  529  A    between atoms: _1753  and  _1755
REMARK  530  A    between atoms: _1754  and  _1756
REMARK  531  A    between atoms: _1768  and  _1769
REMARK  532  A    between atoms: _1769  and  _1772
REMARK  533  A    between atoms: _1772  and  _1773
REMARK  534  A    between atoms: _1791  and  _1793
REMARK  535  A    between atoms: _1792  and  _1794
REMARK  536  A    between atoms: _1814  and  _1815
REMARK  537  A    between atoms: _1814  and  _1817
REMARK  538  A    between atoms: _1817  and  _1818
REMARK  539  A    between atoms: _1817  and  _1819
REMARK  540  A    between atoms: _1818  and  _1820
REMARK  541  A    between atoms: _1833  and  _1834
REMARK  542  A    between atoms: _1834  and  _1835
REMARK  543  A    between atoms: _1840  and  _1841
REMARK  544  A    between atoms: _1841  and  _1842
REMARK  545  A    between atoms: _1841  and  _1844
REMARK  546  A    between atoms: _1844  and  _1845
REMARK  547  A    between atoms: _1845  and  _1846
REMARK  548  A    between atoms: _1857  and  _1858
REMARK  549  A    between atoms: _1858  and  _1859
REMARK  550  A    between atoms: _1858  and  _1861
REMARK  551  A    between atoms: _1861  and  _1862
REMARK  552  A    between atoms: _1877  and  _1878
REMARK  553  A    between atoms: _1878  and  _1879
REMARK  554  A    between atoms: _1884  and  _1885
REMARK  555  A    between atoms: _1885  and  _1886
REMARK  556  A    between atoms: _1885  and  _1888
REMARK  557  A    between atoms: _1888  and  _1889
REMARK  558  A    between atoms: _1888  and  _1890
REMARK  559  A    between atoms: _1900  and  _1901
REMARK  560  A    between atoms: _1901  and  _1902
REMARK  561  A    between atoms: _1907  and  _1908
REMARK  562  A    between atoms: _1908  and  _1909
REMARK  563  A    between atoms: _1908  and  _1911
REMARK  564  A    between atoms: _1911  and  _1912
REMARK  565  A    between atoms: _1927  and  _1928
REMARK  566  A    between atoms: _1928  and  _1929
REMARK  567  A    between atoms: _1928  and  _1931
REMARK  568  A    between atoms: _1931  and  _1932
REMARK  569  A    between atoms: _1937  and  _1938
REMARK  570  A    between atoms: _1948  and  _1949
REMARK  571  A    between atoms: _1949  and  _1950
REMARK  572  A    between atoms: _1949  and  _1952
REMARK  573  A    between atoms: _1952  and  _1953
REMARK  574  A    between atoms: _1959  and  _1960
REMARK  575  A    between atoms: _1960  and  _1961
REMARK  576  A    between atoms: _1960  and  _1963
REMARK  577  A    between atoms: _1969  and  _1970
REMARK  578  A    between atoms: _1970  and  _1971
REMARK  579  A    between atoms: _1970  and  _1973
REMARK  580  A    between atoms: _1973  and  _1974
REMARK  581  A    between atoms: _1979  and  _1980
REMARK  582  A    between atoms: _1990  and  _1991
REMARK  583  A    between atoms: _1991  and  _1992
REMARK  584  A    between atoms: _1991  and  _1994
REMARK  585  A    between atoms: _1994  and  _1995
REMARK  586  A    between atoms: _1995  and  _1996
REMARK  587  A    between atoms: _1995  and  _1997
REMARK  588  A    between atoms: _2009  and  _2010
REMARK  589  A    between atoms: _2010  and  _2011
REMARK  590  A    between atoms: _2010  and  _2013
REMARK  591  A    between atoms: _2013  and  _2014
REMARK  592  A    between atoms: _2013  and  _2015
REMARK  593  A    between atoms: _2025  and  _2026
REMARK  594  A    between atoms: _2026  and  _2027
REMARK  595  A    between atoms: _2026  and  _2029
REMARK  596  A    between atoms: _2035  and  _2036
REMARK  597  A    between atoms: _2036  and  _2037
REMARK  598  A    between atoms: _2036  and  _2039
REMARK  599  A    between atoms: _2039  and  _2040
REMARK  600  A    between atoms: _2040  and  _2041
REMARK  601  A    between atoms: _2050  and  _2051
REMARK  602  A    between atoms: _2051  and  _2052
REMARK  603  A    between atoms: _2051  and  _2054
REMARK  604  A    between atoms: _2054  and  _2055
REMARK  605  A    between atoms: _2055  and  _2056
REMARK  606  A    between atoms: _2056  and  _2057
REMARK  607  A    between atoms: _2057  and  _2058
REMARK  608  A    between atoms: _2072  and  _2073
REMARK  609  A    between atoms: _2073  and  _2074
REMARK  610  A    between atoms: _2073  and  _2076
REMARK  611  A    between atoms: _2076  and  _2077
REMARK  612  A    between atoms: _2076  and  _2078
REMARK  613  A    between atoms: _2088  and  _2089
REMARK  614  A    between atoms: _2089  and  _2090
REMARK  615  A    between atoms: _2089  and  _2092
REMARK  616  A    between atoms: _2092  and  _2093
REMARK  617  A    between atoms: _2092  and  _2094
REMARK  618  A    between atoms: _2102  and  _2103
REMARK  619  A    between atoms: _2103  and  _2104
REMARK  620  A    between atoms: _2103  and  _2106
REMARK  621  A    between atoms: _2106  and  _2107
REMARK  622  A    between atoms: _2106  and  _2108
REMARK  623  A    between atoms: _2118  and  _2119
REMARK  624  A    between atoms: _2119  and  _2120
REMARK  625  A    between atoms: _2119  and  _2122
REMARK  626  A    between atoms: _2122  and  _2123
REMARK  627  A    between atoms: _2122  and  _2124
REMARK  628  A    between atoms: _2123  and  _2125
REMARK  629  A    between atoms: _2137  and  _2138
REMARK  630  A    between atoms: _2138  and  _2139
REMARK  631  A    between atoms: _2138  and  _2141
REMARK  632  A    between atoms: _2141  and  _2142
REMARK  633  A    between atoms: _2141  and  _2143
REMARK  634  A    between atoms: _2151  and  _2152
REMARK  635  A    between atoms: _2152  and  _2153
REMARK  636  A    between atoms: _2152  and  _2155
REMARK  637  A    between atoms: _2155  and  _2156
REMARK  638  A    between atoms: _2156  and  _2157
REMARK  639  A    between atoms: _2157  and  _2158
REMARK  640  A    between atoms: _2158  and  _2159
REMARK  641  A    between atoms: _2173  and  _2174
REMARK  642  A    between atoms: _2174  and  _2175
REMARK  643  A    between atoms: _2174  and  _2177
REMARK  644  A    between atoms: _2177  and  _2178
REMARK  645  A    between atoms: _2190  and  _2191
REMARK  646  A    between atoms: _2191  and  _2192
REMARK  647  A    between atoms: _2191  and  _2194
REMARK  648  A    between atoms: _2194  and  _2195
REMARK  649  A    between atoms: _2204  and  _2205
REMARK  650  A    between atoms: _2205  and  _2206
REMARK  651  A    between atoms: _2205  and  _2208
REMARK  652  A    between atoms: _2208  and  _2209
REMARK  653  A    between atoms: _2216  and  _2217
REMARK  654  A    between atoms: _2217  and  _2218
REMARK  655  A    between atoms: _2217  and  _2220
REMARK  656  A    between atoms: _2220  and  _2221
REMARK  657  A    between atoms: _2228  and  _2229
REMARK  658  A    between atoms: _2229  and  _2230
REMARK  659  A    between atoms: _2229  and  _2232
REMARK  660  A    between atoms: _2232  and  _2233
REMARK  661  A    between atoms: _2233  and  _2234
REMARK  662  A    between atoms: _2243  and  _2244
REMARK  663  A    between atoms: _2244  and  _2245
REMARK  664  A    between atoms: _2244  and  _2247
REMARK  665  A    between atoms: _2247  and  _2248
REMARK  666  A    between atoms: _2248  and  _2249
REMARK  667  A    between atoms: _2260  and  _2261
REMARK  668  A    between atoms: _2261  and  _2262
REMARK  669  A    between atoms: _2261  and  _2264
REMARK  670  A    between atoms: _2264  and  _2265
REMARK  671  A    between atoms: _2270  and  _2271
REMARK  672  A    between atoms: _2281  and  _2282
REMARK  673  A    between atoms: _2282  and  _2283
REMARK  674  A    between atoms: _2282  and  _2285
REMARK  675  A    between atoms: _2291  and  _2292
REMARK  676  A    between atoms: _2292  and  _2293
REMARK  677  A    between atoms: _2292  and  _2295
REMARK  678  A    between atoms: _2295  and  _2296
REMARK  679  A    between atoms: _2315  and  _2316
REMARK  680  A    between atoms: _2316  and  _2317
REMARK  681  A    between atoms: _2316  and  _2319
REMARK  682  A    between atoms: _2319  and  _2320
REMARK  683  A    between atoms: _2320  and  _2321
REMARK  684  A    between atoms: _2330  and  _2331
REMARK  685  A    between atoms: _2331  and  _2332
REMARK  686  A    between atoms: _2331  and  _2334
REMARK  687  A    between atoms: _2334  and  _2335
REMARK  688  A    between atoms: _2341  and  _2342
REMARK  689  A    between atoms: _2342  and  _2343
REMARK  690  A    between atoms: _2342  and  _2345
REMARK  691  A    between atoms: _2345  and  _2346
REMARK  692  A    between atoms: _2352  and  _2353
REMARK  693  A    between atoms: _2353  and  _2354
REMARK  694  A    between atoms: _2353  and  _2356
REMARK  695  A    between atoms: _2362  and  _2363
REMARK  696  A    between atoms: _2363  and  _2364
REMARK  697  A    between atoms: _2369  and  _2370
REMARK  698  A    between atoms: _2370  and  _2371
REMARK  699  A    between atoms: _2376  and  _2377
REMARK  700  A    between atoms: _2377  and  _2378
REMARK  701  A    between atoms: _2377  and  _2380
REMARK  702  A    between atoms: _2380  and  _2381
REMARK  703  A    between atoms: _2387  and  _2388
REMARK  704  A    between atoms: _2388  and  _2389
REMARK  705  A    between atoms: _2388  and  _2391
REMARK  706  A    between atoms: _2391  and  _2392
REMARK  707  A    between atoms: _2407  and  _2408
REMARK  708  A    between atoms: _2408  and  _2409
REMARK  709  A    between atoms: _2408  and  _2411
REMARK  710  A    between atoms: _2411  and  _2412
REMARK  711  A    between atoms: _2411  and  _2413
REMARK  712  A    between atoms: _2421  and  _2422
REMARK  713  A    between atoms: _2422  and  _2423
REMARK  714  A    between atoms: _2422  and  _2425
REMARK  715  A    between atoms: _2425  and  _2426
REMARK  716  A    between atoms: _2425  and  _2427
REMARK  717  A    between atoms: _2437  and  _2438
REMARK  718  A    between atoms: _2438  and  _2439
REMARK  719  A    between atoms: _2438  and  _2441
REMARK  720  A    between atoms: _2441  and  _2442
REMARK  721  A    between atoms: _2442  and  _2443
REMARK  722  A    between atoms: _2443  and  _2444
REMARK  723  A    between atoms: _2461  and  _2462
REMARK  724  A    between atoms: _2462  and  _2463
REMARK  725  A    between atoms: _2462  and  _2465
REMARK  726  A    between atoms: _2465  and  _2466
REMARK  727  A    between atoms: _2465  and  _2467
REMARK  728  A    between atoms: _2475  and  _2476
REMARK  729  A    between atoms: _2476  and  _2477
REMARK  730  A    between atoms: _2476  and  _2479
REMARK  731  A    between atoms: _2479  and  _2480
REMARK  732  A    between atoms: _2487  and  _2488
REMARK  733  A    between atoms: _2488  and  _2489
REMARK  734  A    between atoms: _2488  and  _2491
REMARK  735  A    between atoms: _2491  and  _2492
REMARK  736  A    between atoms: _2491  and  _2493
REMARK  737  A    between atoms: _2501  and  _2502
REMARK  738  A    between atoms: _2502  and  _2503
REMARK  739  A    between atoms: _2508  and  _2509
REMARK  740  A    between atoms: _2509  and  _2510
REMARK  741  A    between atoms: _2509  and  _2512
REMARK  742  A    between atoms: _2512  and  _2513
REMARK  743  A    between atoms: _2513  and  _2514
REMARK  744  A    between atoms: _2524  and  _2525
REMARK  745  A    between atoms: _2537  and  _2538
REMARK  746  A    between atoms: _2538  and  _2539
REMARK  747  A    between atoms: _2538  and  _2541
REMARK  748  A    between atoms: _2541  and  _2542
REMARK  749  A    between atoms: _2542  and  _2543
REMARK  750  A    between atoms: _2543  and  _2544
REMARK  751  A    between atoms: _2554  and  _2555
REMARK  752  A    between atoms: _2555  and  _2556
REMARK  753  A    between atoms: _2561  and  _2562
REMARK  754  A    between atoms: _2562  and  _2563
REMARK  755  A    between atoms: _2562  and  _2565
REMARK  756  A    between atoms: _2565  and  _2566
REMARK  757  A    between atoms: _2566  and  _2567
REMARK  758  A    between atoms: _2567  and  _2568
REMARK  759  A    between atoms: _2585  and  _2586
REMARK  760  A    between atoms: _2586  and  _2587
REMARK  761  A    between atoms: _2592  and  _2593
REMARK  762  A    between atoms: _2593  and  _2594
REMARK  763  A    between atoms: _2593  and  _2596
REMARK  764  A    between atoms: _2596  and  _2597
REMARK  765  A    between atoms: _2596  and  _2598
REMARK  766  A    between atoms: _2606  and  _2607
REMARK  767  A    between atoms: _2607  and  _2608
REMARK  768  A    between atoms: _2607  and  _2610
REMARK  769  A    between atoms: _2610  and  _2611
REMARK  770  A    between atoms: _2611  and  _2612
REMARK  771  A    between atoms: _2612  and  _2613
REMARK  772  A    between atoms: _2613  and  _2614
REMARK  773  A    between atoms: _2628  and  _2629
REMARK  774  A    between atoms: _2629  and  _2630
REMARK  775  A    between atoms: _2629  and  _2632
REMARK  776  A    between atoms: _2632  and  _2633
REMARK  777  A    between atoms: _2632  and  _2634
REMARK  778  A    between atoms: _2644  and  _2645
REMARK  779  A    between atoms: _2645  and  _2646
REMARK  780  A    between atoms: _2645  and  _2648
REMARK  781  A    between atoms: _2648  and  _2649
REMARK  782  A    between atoms: _2648  and  _2650
REMARK  783  A    between atoms: _2649  and  _2651
REMARK  784  A    between atoms: _2663  and  _2664
REMARK  785  A    between atoms: _2664  and  _2665
REMARK  786  A    between atoms: _2664  and  _2667
REMARK  787  A    between atoms: _2667  and  _2668
REMARK  788  A    between atoms: _2668  and  _2669
REMARK  789  A    between atoms: _2668  and  _2670
REMARK  790  A    between atoms: _2682  and  _2683
REMARK  791  A    between atoms: _2683  and  _2684
REMARK  792  A    between atoms: _2683  and  _2686
REMARK  793  A    between atoms: _2686  and  _2687
REMARK  794  A    between atoms: _2699  and  _2700
REMARK  795  A    between atoms: _2700  and  _2701
REMARK  796  A    between atoms: _2700  and  _2703
REMARK  797  A    between atoms: _2703  and  _2704
REMARK  798  A    between atoms: _2704  and  _2705
REMARK  799  A    between atoms: _2704  and  _2706
REMARK  800  A    between atoms: _2718  and  _2719
REMARK  801  A    between atoms: _2719  and  _2720
REMARK  802  A    between atoms: _2719  and  _2722
REMARK  803  A    between atoms: _2722  and  _2723
REMARK  804  A    between atoms: _2723  and  _2724
REMARK  805  A    between atoms: _2724  and  _2725
REMARK  806  A    between atoms: _2725  and  _2726
REMARK  807  A    between atoms: _2740  and  _2741
REMARK  808  A    between atoms: _2741  and  _2742
REMARK  809  A    between atoms: _2741  and  _2744
REMARK  810  A    between atoms: _2744  and  _2745
REMARK  811  A    between atoms: _2745  and  _2746
REMARK  812  A    between atoms: _2755  and  _2756
REMARK  813  A    between atoms: _2756  and  _2757
REMARK  814  A    between atoms: _2756  and  _2759
REMARK  815  A    between atoms: _2759  and  _2760
REMARK  816  A    between atoms: _2767  and  _2768
REMARK  817  A    between atoms: _2768  and  _2769
REMARK  818  A    between atoms: _2768  and  _2771
REMARK  819  A    between atoms: _2771  and  _2772
REMARK  820  A    between atoms: _2772  and  _2773
REMARK  821  A    between atoms: _2784  and  _2785
REMARK  822  A    between atoms: _2785  and  _2786
REMARK  823  A    between atoms: _2785  and  _2788
REMARK  824  A    between atoms: _2788  and  _2789
REMARK  825  A    between atoms: _2788  and  _2790
REMARK  826  A    between atoms: _2798  and  _2799
REMARK  827  A    between atoms: _2799  and  _2800
REMARK  828  A    between atoms: _2799  and  _2802
REMARK  829  A    between atoms: _2802  and  _2803
REMARK  830  A    between atoms: _2803  and  _2804
REMARK  831  A    between atoms: _2813  and  _2814
REMARK  832  A    between atoms: _2814  and  _2815
REMARK  833  A    between atoms: _2814  and  _2817
REMARK  834  A    between atoms: _2817  and  _2818
REMARK  835  A    between atoms: _2823  and  _2824
REMARK  836  A    between atoms: _2834  and  _2835
REMARK  837  A    between atoms: _2835  and  _2838
REMARK  838  A    between atoms: _2838  and  _2839
REMARK  839  A    between atoms: _2839  and  _2840
REMARK  840  A    between atoms: _2839  and  _2841
REMARK  841  A    between atoms: _2884  and  _2885
REMARK  842  A    between atoms: _2884  and  _2887
REMARK  843  A    between atoms: _2887  and  _2888
REMARK  844  A    between atoms: _2888  and  _2889
REMARK  845  A    between atoms: _2899  and  _2900
REMARK  846  A    between atoms: _2900  and  _2901
REMARK  847  A    between atoms: _2900  and  _2903
REMARK  848  A    between atoms: _2903  and  _2904
REMARK  849  A    between atoms: _2904  and  _2905
REMARK  850  A    between atoms: _2905  and  _2906
REMARK  851  A    between atoms: _2923  and  _2924
REMARK  852  A    between atoms: _2924  and  _2925
REMARK  853  A    between atoms: _2924  and  _2927
REMARK  854  A    between atoms: _2927  and  _2928
REMARK  855  A    between atoms: _2928  and  _2929
REMARK  856  A    between atoms: _2929  and  _2930
REMARK  857  A    between atoms: _2947  and  _2948
REMARK  858  A    between atoms: _2948  and  _2949
REMARK  859  A    between atoms: _2948  and  _2951
REMARK  860  A    between atoms: _2951  and  _2952
REMARK  861  A    between atoms: _2951  and  _2953
REMARK  862  A    between atoms: _2952  and  _2954
REMARK  863  A    between atoms: _2966  and  _2967
REMARK  864  A    between atoms: _2967  and  _2968
REMARK  865  A    between atoms: _2967  and  _2970
REMARK  866  A    between atoms: _2970  and  _2971
REMARK  867  A    between atoms: _2971  and  _2972
REMARK  868  A    between atoms: _2972  and  _2973
REMARK  869  A    between atoms: _2973  and  _2974
REMARK  870  A    between atoms: _2988  and  _2989
REMARK  871  A    between atoms: _2989  and  _2990
REMARK  872  A    between atoms: _2989  and  _2992
REMARK  873  A    between atoms: _2992  and  _2993
REMARK  874  A    between atoms: _2993  and  _2994
REMARK  875  A    between atoms: _3003  and  _3004
REMARK  876  A    between atoms: _3004  and  _3005
REMARK  877  A    between atoms: _3004  and  _3007
REMARK  878  A    between atoms: _3007  and  _3008
REMARK  879  A    between atoms: _3007  and  _3009
REMARK  880  A    between atoms: _3008  and  _3010
REMARK  881  A    between atoms: _3022  and  _3023
REMARK  882  A    between atoms: _3023  and  _3024
REMARK  883  A    between atoms: _3023  and  _3026
REMARK  884  A    between atoms: _3026  and  _3027
REMARK  885  A    between atoms: _3026  and  _3028
REMARK  886  A    between atoms: _3038  and  _3039
REMARK  887  A    between atoms: _3039  and  _3040
REMARK  888  A    between atoms: _3039  and  _3042
REMARK  889  A    between atoms: _3042  and  _3043
REMARK  890  A    between atoms: _3043  and  _3044
REMARK  891  A    between atoms: _3044  and  _3045
REMARK  892  A    between atoms: _3045  and  _3046
REMARK  893  A    between atoms: _3060  and  _3061
REMARK  894  A    between atoms: _3061  and  _3062
REMARK  895  A    between atoms: _3061  and  _3064
REMARK  896  A    between atoms: _3064  and  _3065
REMARK  897  A    between atoms: _3065  and  _3066
REMARK  898  A    between atoms: _3066  and  _3067
REMARK  899  A    between atoms: _3067  and  _3068
REMARK  900  A    between atoms: _3082  and  _3083
REMARK  901  A    between atoms: _3083  and  _3084
REMARK  902  A    between atoms: _3083  and  _3086
REMARK  903  A    between atoms: _3086  and  _3087
REMARK  904  A    between atoms: _3099  and  _3100
REMARK  905  A    between atoms: _3100  and  _3101
REMARK  906  A    between atoms: _3100  and  _3103
REMARK  907  A    between atoms: _3103  and  _3104
REMARK  908  A    between atoms: _3110  and  _3111
REMARK  909  A    between atoms: _3111  and  _3112
REMARK  910  A    between atoms: _3111  and  _3114
REMARK  911  A    between atoms: _3114  and  _3115
REMARK  912  A    between atoms: _3115  and  _3116
REMARK  913  A    between atoms: _3127  and  _3128
REMARK  914  A    between atoms: _3128  and  _3129
REMARK  915  A    between atoms: _3128  and  _3131
REMARK  916  A    between atoms: _3131  and  _3132
REMARK  917  A    between atoms: _3147  and  _3148
REMARK  918  A    between atoms: _3148  and  _3149
REMARK  919  A    between atoms: _3148  and  _3151
REMARK  920  A    between atoms: _3151  and  _3152
REMARK  921  A    between atoms: _3151  and  _3153
REMARK  922  A    between atoms: _3152  and  _3154
REMARK  923  A    between atoms: _3166  and  _3167
REMARK  924  A    between atoms: _3167  and  _3168
REMARK  925  A    between atoms: _3173  and  _3174
REMARK  926  A    between atoms: _3174  and  _3175
REMARK  927  A    between atoms: _3174  and  _3177
REMARK  928  A    between atoms: _3177  and  _3178
REMARK  929  A    between atoms: _3183  and  _3184
REMARK  930  A    between atoms: _3195  and  _3196
REMARK  931  A    between atoms: _3208  and  _3209
REMARK  932  A    between atoms: _3209  and  _3210
REMARK  933  A    between atoms: _3209  and  _3212
REMARK  934  A    between atoms: _3212  and  _3213
REMARK  935  A    between atoms: _3212  and  _3214
REMARK  936  A    between atoms: _3213  and  _3215
REMARK  937  A    between atoms: _3227  and  _3228
REMARK  938  A    between atoms: _3228  and  _3229
REMARK  939  A    between atoms: _3228  and  _3231
REMARK  940  A    between atoms: _3231  and  _3232
REMARK  941  A    between atoms: _3231  and  _3233
REMARK  942  A    between atoms: _3241  and  _3242
REMARK  943  A    between atoms: _3242  and  _3243
REMARK  944  A    between atoms: _3242  and  _3245
REMARK  945  A    between atoms: _3245  and  _3246
REMARK  946  A    between atoms: _3246  and  _3247
REMARK  947  A    between atoms: _3246  and  _3248
REMARK  948  A    between atoms: _3260  and  _3261
REMARK  949  A    between atoms: _3261  and  _3262
REMARK  950  A    between atoms: _3261  and  _3264
REMARK  951  A    between atoms: _3264  and  _3265
REMARK  952  A    between atoms: _3280  and  _3281
REMARK  953  A    between atoms: _3281  and  _3282
REMARK  954  A    between atoms: _3281  and  _3284
REMARK  955  A    between atoms: _3284  and  _3285
REMARK  956  A    between atoms: _3284  and  _3286
REMARK  957  A    between atoms: _3296  and  _3297
REMARK  958  A    between atoms: _3297  and  _3298
REMARK  959  A    between atoms: _3297  and  _3300
REMARK  960  A    between atoms: _3300  and  _3301
REMARK  961  A    between atoms: _3301  and  _3302
REMARK                            x       y       z     vdW  Elec       q    Type
REMARK                         _______ _______ _______ _____ _____    ______ ____
ROOT
ATOM      1  N   UNL     1       6.751  37.856  41.435  0.00  0.00    -0.163 NA
ATOM      2  H   UNL     1       7.544  37.652  42.029  0.00  0.00    +0.163 HD
ENDROOT
TORSDOF 0
REMARK  Name = /Users/mlugowska/PhD/ML_residence_time_prediction/protein_files/5J20_protein.pdb
REMARK  961 active torsions:
REMARK  status: ('A' for Active; 'I' for Inactive)
REMARK    1  A    between atoms: _2  and  _3
REMARK    2  A    between atoms: _2  and  _5
REMARK    3  A    between atoms: _10  and  _11
REMARK    4  A    between atoms: _11  and  _12
REMARK    5  A    between atoms: _11  and  _14
REMARK    6  A    between atoms: _14  and  _15
REMARK    7  A    between atoms: _14  and  _16
REMARK    8  A    between atoms: _26  and  _27
REMARK    9  A    between atoms: _27  and  _28
REMARK   10  A    between atoms: _27  and  _30
REMARK   11  A    between atoms: _30  and  _31
REMARK   12  A    between atoms: _31  and  _32
REMARK   13  A    between atoms: _41  and  _42
REMARK   14  A    between atoms: _42  and  _43
REMARK   15  A    between atoms: _42  and  _45
REMARK   16  A    between atoms: _45  and  _46
REMARK   17  A    between atoms: _45  and  _47
REMARK   18  A    between atoms: _55  and  _56
REMARK   19  A    between atoms: _56  and  _57
REMARK   20  A    between atoms: _56  and  _59
REMARK   21  A    between atoms: _59  and  _60
REMARK   22  A    between atoms: _75  and  _76
REMARK   23  A    between atoms: _76  and  _77
REMARK   24  A    between atoms: _76  and  _79
REMARK   25  A    between atoms: _85  and  _86
REMARK   26  A    between atoms: _86  and  _87
REMARK   27  A    between atoms: _86  and  _89
REMARK   28  A    between atoms: _89  and  _90
REMARK   29  A    between atoms: _105  and  _106
REMARK   30  A    between atoms: _106  and  _107
REMARK   31  A    between atoms: _106  and  _109
REMARK   32  A    between atoms: _109  and  _110
REMARK   33  A    between atoms: _110  and  _111
REMARK   34  A    between atoms: _122  and  _123
REMARK   35  A    between atoms: _123  and  _124
REMARK   36  A    between atoms: _123  and  _126
REMARK   37  A    between atoms: _132  and  _133
REMARK   38  A    between atoms: _133  and  _134
REMARK   39  A    between atoms: _133  and  _136
REMARK   40  A    between atoms: _136  and  _137
REMARK   41  A    between atoms: _137  and  _138
REMARK   42  A    between atoms: _147  and  _148
REMARK   43  A    between atoms: _148  and  _149
REMARK   44  A    between atoms: _148  and  _151
REMARK   45  A    between atoms: _151  and  _152
REMARK   46  A    between atoms: _151  and  _153
REMARK   47  A    between atoms: _152  and  _154
REMARK   48  A    between atoms: _166  and  _167
REMARK   49  A    between atoms: _167  and  _168
REMARK   50  A    between atoms: _167  and  _170
REMARK   51  A    between atoms: _176  and  _177
REMARK   52  A    between atoms: _177  and  _178
REMARK   53  A    between atoms: _177  and  _180
REMARK   54  A    between atoms: _180  and  _181
REMARK   55  A    between atoms: _181  and  _182
REMARK   56  A    between atoms: _193  and  _194
REMARK   57  A    between atoms: _194  and  _195
REMARK   58  A    between atoms: _194  and  _197
REMARK   59  A    between atoms: _197  and  _198
REMARK   60  A    between atoms: _198  and  _199
REMARK   61  A    between atoms: _198  and  _200
REMARK   62  A    between atoms: _212  and  _213
REMARK   63  A    between atoms: _213  and  _214
REMARK   64  A    between atoms: _213  and  _216
REMARK   65  A    between atoms: _216  and  _217
REMARK   66  A    between atoms: _217  and  _218
REMARK   67  A    between atoms: _218  and  _219
REMARK   68  A    between atoms: _229  and  _230
REMARK   69  A    between atoms: _230  and  _231
REMARK   70  A    between atoms: _230  and  _233
REMARK   71  A    between atoms: _233  and  _234
REMARK   72  A    between atoms: _240  and  _241
REMARK   73  A    between atoms: _241  and  _242
REMARK   74  A    between atoms: _241  and  _244
REMARK   75  A    between atoms: _244  and  _245
REMARK   76  A    between atoms: _245  and  _246
REMARK   77  A    between atoms: _245  and  _247
REMARK   78  A    between atoms: _259  and  _260
REMARK   79  A    between atoms: _260  and  _261
REMARK   80  A    between atoms: _260  and  _263
REMARK   81  A    between atoms: _263  and  _264
REMARK   82  A    between atoms: _263  and  _265
REMARK   83  A    between atoms: _264  and  _266
REMARK   84  A    between atoms: _278  and  _279
REMARK   85  A    between atoms: _279  and  _280
REMARK   86  A    between atoms: _279  and  _282
REMARK   87  A    between atoms: _282  and  _283
REMARK   88  A    between atoms: _282  and  _284
REMARK   89  A    between atoms: _283  and  _285
REMARK   90  A    between atoms: _297  and  _298
REMARK   91  A    between atoms: _298  and  _299
REMARK   92  A    between atoms: _298  and  _301
REMARK   93  A    between atoms: _301  and  _302
REMARK   94  A    between atoms: _311  and  _312
REMARK   95  A    between atoms: _312  and  _313
REMARK   96  A    between atoms: _312  and  _315
REMARK   97  A    between atoms: _315  and  _316
REMARK   98  A    between atoms: _315  and  _317
REMARK   99  A    between atoms: _325  and  _326
REMARK  100  A    between atoms: _326  and  _327
REMARK  101  A    between atoms: _326  and  _329
REMARK  102  A    between atoms: _329  and  _330
REMARK  103  A    between atoms: _345  and  _346
REMARK  104  A    between atoms: _346  and  _347
REMARK  105  A    between atoms: _346  and  _349
REMARK  106  A    between atoms: _349  and  _350
REMARK  107  A    between atoms: _355  and  _356
REMARK  108  A    between atoms: _366  and  _367
REMARK  109  A    between atoms: _367  and  _368
REMARK  110  A    between atoms: _367  and  _370
REMARK  111  A    between atoms: _370  and  _371
REMARK  112  A    between atoms: _377  and  _378
REMARK  113  A    between atoms: _378  and  _379
REMARK  114  A    between atoms: _378  and  _381
REMARK  115  A    between atoms: _381  and  _382
REMARK  116  A    between atoms: _391  and  _392
REMARK  117  A    between atoms: _392  and  _393
REMARK  118  A    between atoms: _392  and  _395
REMARK  119  A    between atoms: _395  and  _396
REMARK  120  A    between atoms: _396  and  _397
REMARK  121  A    between atoms: _397  and  _398
REMARK  122  A    between atoms: _398  and  _399
REMARK  123  A    between atoms: _413  and  _414
REMARK  124  A    between atoms: _414  and  _415
REMARK  125  A    between atoms: _414  and  _417
REMARK  126  A    between atoms: _417  and  _418
REMARK  127  A    between atoms: _418  and  _419
REMARK  128  A    between atoms: _428  and  _429
REMARK  129  A    between atoms: _429  and  _430
REMARK  130  A    between atoms: _429  and  _432
REMARK  131  A    between atoms: _432  and  _433
REMARK  132  A    between atoms: _432  and  _434
REMARK  133  A    between atoms: _433  and  _435
REMARK  134  A    between atoms: _447  and  _448
REMARK  135  A    between atoms: _448  and  _449
REMARK  136  A    between atoms: _448  and  _451
REMARK  137  A    between atoms: _451  and  _452
REMARK  138  A    between atoms: _467  and  _468
REMARK  139  A    between atoms: _468  and  _469
REMARK  140  A    between atoms: _468  and  _471
REMARK  141  A    between atoms: _471  and  _472
REMARK  142  A    between atoms: _472  and  _473
REMARK  143  A    between atoms: _472  and  _474
REMARK  144  A    between atoms: _486  and  _487
REMARK  145  A    between atoms: _487  and  _488
REMARK  146  A    between atoms: _487  and  _490
REMARK  147  A    between atoms: _490  and  _491
REMARK  148  A    between atoms: _491  and  _492
REMARK  149  A    between atoms: _492  and  _493
REMARK  150  A    between atoms: _510  and  _511
REMARK  151  A    between atoms: _511  and  _512
REMARK  152  A    between atoms: _511  and  _514
REMARK  153  A    between atoms: _514  and  _515
REMARK  154  A    between atoms: _515  and  _516
REMARK  155  A    between atoms: _525  and  _526
REMARK  156  A    between atoms: _526  and  _527
REMARK  157  A    between atoms: _526  and  _529
REMARK  158  A    between atoms: _529  and  _530
REMARK  159  A    between atoms: _530  and  _531
REMARK  160  A    between atoms: _530  and  _532
REMARK  161  A    between atoms: _544  and  _545
REMARK  162  A    between atoms: _545  and  _546
REMARK  163  A    between atoms: _545  and  _548
REMARK  164  A    between atoms: _548  and  _549
REMARK  165  A    between atoms: _548  and  _550
REMARK  166  A    between atoms: _549  and  _551
REMARK  167  A    between atoms: _563  and  _564
REMARK  168  A    between atoms: _564  and  _565
REMARK  169  A    between atoms: _564  and  _567
REMARK  170  A    between atoms: _567  and  _568
REMARK  171  A    between atoms: _574  and  _575
REMARK  172  A    between atoms: _575  and  _576
REMARK  173  A    between atoms: _575  and  _578
REMARK  174  A    between atoms: _578  and  _579
REMARK  175  A    between atoms: _588  and  _589
REMARK  176  A    between atoms: _589  and  _590
REMARK  177  A    between atoms: _589  and  _592
REMARK  178  A    between atoms: _592  and  _593
REMARK  179  A    between atoms: _599  and  _600
REMARK  180  A    between atoms: _600  and  _601
REMARK  181  A    between atoms: _600  and  _603
REMARK  182  A    between atoms: _603  and  _604
REMARK  183  A    between atoms: _610  and  _611
REMARK  184  A    between atoms: _611  and  _612
REMARK  185  A    between atoms: _611  and  _614
REMARK  186  A    between atoms: _614  and  _615
REMARK  187  A    between atoms: _622  and  _623
REMARK  188  A    between atoms: _623  and  _624
REMARK  189  A    between atoms: _623  and  _626
REMARK  190  A    between atoms: _632  and  _633
REMARK  191  A    between atoms: _633  and  _634
REMARK  192  A    between atoms: _633  and  _636
REMARK  193  A    between atoms: _636  and  _637
REMARK  194  A    between atoms: _637  and  _638
REMARK  195  A    between atoms: _637  and  _639
REMARK  196  A    between atoms: _651  and  _652
REMARK  197  A    between atoms: _652  and  _653
REMARK  198  A    between atoms: _652  and  _655
REMARK  199  A    between atoms: _655  and  _656
REMARK  200  A    between atoms: _663  and  _664
REMARK  201  A    between atoms: _664  and  _665
REMARK  202  A    between atoms: _664  and  _667
REMARK  203  A    between atoms: _667  and  _668
REMARK  204  A    between atoms: _668  and  _669
REMARK  205  A    between atoms: _669  and  _670
REMARK  206  A    between atoms: _670  and  _671
REMARK  207  A    between atoms: _685  and  _686
REMARK  208  A    between atoms: _686  and  _687
REMARK  209  A    between atoms: _686  and  _689
REMARK  210  A    between atoms: _689  and  _690
REMARK  211  A    between atoms: _689  and  _691
REMARK  212  A    between atoms: _690  and  _692
REMARK  213  A    between atoms: _704  and  _705
REMARK  214  A    between atoms: _705  and  _706
REMARK  215  A    between atoms: _705  and  _708
REMARK  216  A    between atoms: _708  and  _709
REMARK  217  A    between atoms: _709  and  _710
REMARK  218  A    between atoms: _710  and  _711
REMARK  219  A    between atoms: _728  and  _729
REMARK  220  A    between atoms: _729  and  _730
REMARK  221  A    between atoms: _729  and  _732
REMARK  222  A    between atoms: _732  and  _733
REMARK  223  A    between atoms: _738  and  _739
REMARK  224  A    between atoms: _749  and  _750
REMARK  225  A    between atoms: _750  and  _751
REMARK  226  A    between atoms: _750  and  _753
REMARK  227  A    between atoms: _753  and  _754
REMARK  228  A    between atoms: _754  and  _755
REMARK  229  A    between atoms: _764  and  _765
REMARK  230  A    between atoms: _765  and  _766
REMARK  231  A    between atoms: _765  and  _768
REMARK  232  A    between atoms: _772  and  _773
REMARK  233  A    between atoms: _773  and  _774
REMARK  234  A    between atoms: _773  and  _776
REMARK  235  A    between atoms: _776  and  _777
REMARK  236  A    between atoms: _777  and  _778
REMARK  237  A    between atoms: _777  and  _779
REMARK  238  A    between atoms: _791  and  _792
REMARK  239  A    between atoms: _792  and  _793
REMARK  240  A    between atoms: _792  and  _795
REMARK  241  A    between atoms: _795  and  _796
REMARK  242  A    between atoms: _795  and  _797
REMARK  243  A    between atoms: _805  and  _806
REMARK  244  A    between atoms: _806  and  _807
REMARK  245  A    between atoms: _806  and  _809
REMARK  246  A    between atoms: _809  and  _810
REMARK  247  A    between atoms: _818  and  _819
REMARK  248  A    between atoms: _831  and  _832
REMARK  249  A    between atoms: _832  and  _833
REMARK  250  A    between atoms: _832  and  _835
REMARK  251  A    between atoms: _835  and  _836
REMARK  252  A    between atoms: _842  and  _843
REMARK  253  A    between atoms: _843  and  _844
REMARK  254  A    between atoms: _843  and  _846
REMARK  255  A    between atoms: _846  and  _847
REMARK  256  A    between atoms: _847  and  _848
REMARK  257  A    between atoms: _848  and  _849
REMARK  258  A    between atoms: _849  and  _850
REMARK  259  A    between atoms: _864  and  _865
REMARK  260  A    between atoms: _865  and  _866
REMARK  261  A    between atoms: _865  and  _868
REMARK  262  A    between atoms: _868  and  _869
REMARK  263  A    between atoms: _869  and  _870
REMARK  264  A    between atoms: _869  and  _871
REMARK  265  A    between atoms: _883  and  _884
REMARK  266  A    between atoms: _884  and  _885
REMARK  267  A    between atoms: _884  and  _887
REMARK  268  A    between atoms: _887  and  _888
REMARK  269  A    between atoms: _895  and  _896
REMARK  270  A    between atoms: _896  and  _897
REMARK  271  A    between atoms: _896  and  _899
REMARK  272  A    between atoms: _899  and  _900
REMARK  273  A    between atoms: _906  and  _907
REMARK  274  A    between atoms: _907  and  _908
REMARK  275  A    between atoms: _913  and  _914
REMARK  276  A    between atoms: _914  and  _915
REMARK  277  A    between atoms: _914  and  _917
REMARK  278  A    between atoms: _917  and  _918
REMARK  279  A    between atoms: _918  and  _919
REMARK  280  A    between atoms: _919  and  _920
REMARK  281  A    between atoms: _920  and  _921
REMARK  282  A    between atoms: _935  and  _936
REMARK  283  A    between atoms: _936  and  _937
REMARK  284  A    between atoms: _936  and  _939
REMARK  285  A    between atoms: _939  and  _940
REMARK  286  A    between atoms: _940  and  _941
REMARK  287  A    between atoms: _950  and  _951
REMARK  288  A    between atoms: _951  and  _952
REMARK  289  A    between atoms: _951  and  _954
REMARK  290  A    between atoms: _954  and  _955
REMARK  291  A    between atoms: _955  and  _956
REMARK  292  A    between atoms: _955  and  _957
REMARK  293  A    between atoms: _969  and  _970
REMARK  294  A    between atoms: _970  and  _971
REMARK  295  A    between atoms: _970  and  _973
REMARK  296  A    between atoms: _973  and  _974
REMARK  297  A    between atoms: _986  and  _987
REMARK  298  A    between atoms: _987  and  _988
REMARK  299  A    between atoms: _987  and  _990
REMARK  300  A    between atoms: _990  and  _991
REMARK  301  A    between atoms: _990  and  _992
REMARK  302  A    between atoms: _991  and  _993
REMARK  303  A    between atoms: _1005  and  _1006
REMARK  304  A    between atoms: _1006  and  _1007
REMARK  305  A    between atoms: _1006  and  _1009
REMARK  306  A    between atoms: _1009  and  _1010
REMARK  307  A    between atoms: _1019  and  _1020
REMARK  308  A    between atoms: _1020  and  _1021
REMARK  309  A    between atoms: _1020  and  _1023
REMARK  310  A    between atoms: _1023  and  _1024
REMARK  311  A    between atoms: _1024  and  _1025
REMARK  312  A    between atoms: _1024  and  _1026
REMARK  313  A    between atoms: _1038  and  _1039
REMARK  314  A    between atoms: _1039  and  _1040
REMARK  315  A    between atoms: _1039  and  _1042
REMARK  316  A    between atoms: _1042  and  _1043
REMARK  317  A    between atoms: _1042  and  _1044
REMARK  318  A    between atoms: _1043  and  _1045
REMARK  319  A    between atoms: _1058  and  _1059
REMARK  320  A    between atoms: _1071  and  _1072
REMARK  321  A    between atoms: _1072  and  _1073
REMARK  322  A    between atoms: _1072  and  _1075
REMARK  323  A    between atoms: _1075  and  _1076
REMARK  324  A    between atoms: _1085  and  _1086
REMARK  325  A    between atoms: _1086  and  _1087
REMARK  326  A    between atoms: _1086  and  _1089
REMARK  327  A    between atoms: _1089  and  _1090
REMARK  328  A    between atoms: _1090  and  _1091
REMARK  329  A    between atoms: _1091  and  _1092
REMARK  330  A    between atoms: _1092  and  _1093
REMARK  331  A    between atoms: _1107  and  _1108
REMARK  332  A    between atoms: _1108  and  _1109
REMARK  333  A    between atoms: _1108  and  _1111
REMARK  334  A    between atoms: _1111  and  _1112
REMARK  335  A    between atoms: _1112  and  _1113
REMARK  336  A    between atoms: _1124  and  _1125
REMARK  337  A    between atoms: _1125  and  _1126
REMARK  338  A    between atoms: _1125  and  _1128
REMARK  339  A    between atoms: _1128  and  _1129
REMARK  340  A    between atoms: _1136  and  _1137
REMARK  341  A    between atoms: _1137  and  _1138
REMARK  342  A    between atoms: _1137  and  _1140
REMARK  343  A    between atoms: _1140  and  _1141
REMARK  344  A    between atoms: _1141  and  _1142
REMARK  345  A    between atoms: _1142  and  _1143
REMARK  346  A    between atoms: _1160  and  _1161
REMARK  347  A    between atoms: _1161  and  _1162
REMARK  348  A    between atoms: _1161  and  _1164
REMARK  349  A    between atoms: _1164  and  _1165
REMARK  350  A    between atoms: _1164  and  _1166
REMARK  351  A    between atoms: _1174  and  _1175
REMARK  352  A    between atoms: _1175  and  _1176
REMARK  353  A    between atoms: _1175  and  _1178
REMARK  354  A    between atoms: _1178  and  _1179
REMARK  355  A    between atoms: _1179  and  _1180
REMARK  356  A    between atoms: _1179  and  _1181
REMARK  357  A    between atoms: _1193  and  _1194
REMARK  358  A    between atoms: _1194  and  _1195
REMARK  359  A    between atoms: _1194  and  _1197
REMARK  360  A    between atoms: _1197  and  _1198
REMARK  361  A    between atoms: _1197  and  _1199
REMARK  362  A    between atoms: _1207  and  _1208
REMARK  363  A    between atoms: _1208  and  _1209
REMARK  364  A    between atoms: _1208  and  _1211
REMARK  365  A    between atoms: _1211  and  _1212
REMARK  366  A    between atoms: _1211  and  _1213
REMARK  367  A    between atoms: _1212  and  _1214
REMARK  368  A    between atoms: _1226  and  _1227
REMARK  369  A    between atoms: _1227  and  _1228
REMARK  370  A    between atoms: _1227  and  _1230
REMARK  371  A    between atoms: _1230  and  _1231
REMARK  372  A    between atoms: _1230  and  _1232
REMARK  373  A    between atoms: _1242  and  _1243
REMARK  374  A    between atoms: _1243  and  _1244
REMARK  375  A    between atoms: _1243  and  _1246
REMARK  376  A    between atoms: _1246  and  _1247
REMARK  377  A    between atoms: _1254  and  _1255
REMARK  378  A    between atoms: _1255  and  _1256
REMARK  379  A    between atoms: _1255  and  _1258
REMARK  380  A    between atoms: _1258  and  _1259
REMARK  381  A    between atoms: _1258  and  _1260
REMARK  382  A    between atoms: _1268  and  _1269
REMARK  383  A    between atoms: _1269  and  _1270
REMARK  384  A    between atoms: _1275  and  _1276
REMARK  385  A    between atoms: _1276  and  _1277
REMARK  386  A    between atoms: _1276  and  _1279
REMARK  387  A    between atoms: _1279  and  _1280
REMARK  388  A    between atoms: _1279  and  _1281
REMARK  389  A    between atoms: _1280  and  _1282
REMARK  390  A    between atoms: _1294  and  _1295
REMARK  391  A    between atoms: _1295  and  _1296
REMARK  392  A    between atoms: _1301  and  _1302
REMARK  393  A    between atoms: _1302  and  _1303
REMARK  394  A    between atoms: _1302  and  _1305
REMARK  395  A    between atoms: _1305  and  _1306
REMARK  396  A    between atoms: _1306  and  _1307
REMARK  397  A    between atoms: _1307  and  _1308
REMARK  398  A    between atoms: _1318  and  _1319
REMARK  399  A    between atoms: _1319  and  _1320
REMARK  400  A    between atoms: _1319  and  _1322
REMARK  401  A    between atoms: _1322  and  _1323
REMARK  402  A    between atoms: _1322  and  _1324
REMARK  403  A    between atoms: _1332  and  _1333
REMARK  404  A    between atoms: _1333  and  _1334
REMARK  405  A    between atoms: _1333  and  _1336
REMARK  406  A    between atoms: _1336  and  _1337
REMARK  407  A    between atoms: _1337  and  _1338
REMARK  408  A    between atoms: _1338  and  _1339
REMARK  409  A    between atoms: _1339  and  _1340
REMARK  410  A    between atoms: _1354  and  _1355
REMARK  411  A    between atoms: _1355  and  _1356
REMARK  412  A    between atoms: _1355  and  _1358
REMARK  413  A    between atoms: _1364  and  _1365
REMARK  414  A    between atoms: _1365  and  _1366
REMARK  415  A    between atoms: _1365  and  _1368
REMARK  416  A    between atoms: _1368  and  _1369
REMARK  417  A    between atoms: _1376  and  _1377
REMARK  418  A    between atoms: _1377  and  _1378
REMARK  419  A    between atoms: _1377  and  _1380
REMARK  420  A    between atoms: _1380  and  _1381
REMARK  421  A    between atoms: _1381  and  _1382
REMARK  422  A    between atoms: _1381  and  _1383
REMARK  423  A    between atoms: _1395  and  _1396
REMARK  424  A    between atoms: _1396  and  _1399
REMARK  425  A    between atoms: _1399  and  _1400
REMARK  426  A    between atoms: _1399  and  _1401
REMARK  427  A    between atoms: _1400  and  _1402
REMARK  428  A    between atoms: _1422  and  _1425
REMARK  429  A    between atoms: _1424  and  _1428
REMARK  430  A    between atoms: _1425  and  _1427
REMARK  431  A    between atoms: _1443  and  _1444
REMARK  432  A    between atoms: _1443  and  _1446
REMARK  433  A    between atoms: _1446  and  _1447
REMARK  434  A    between atoms: _1457  and  _1458
REMARK  435  A    between atoms: _1458  and  _1459
REMARK  436  A    between atoms: _1458  and  _1461
REMARK  437  A    between atoms: _1461  and  _1462
REMARK  438  A    between atoms: _1462  and  _1463
REMARK  439  A    between atoms: _1462  and  _1464
REMARK  440  A    between atoms: _1476  and  _1477
REMARK  441  A    between atoms: _1477  and  _1478
REMARK  442  A    between atoms: _1483  and  _1484
REMARK  443  A    between atoms: _1484  and  _1485
REMARK  444  A    between atoms: _1484  and  _1487
REMARK  445  A    between atoms: _1487  and  _1488
REMARK  446  A    between atoms: _1487  and  _1489
REMARK  447  A    between atoms: _1497  and  _1498
REMARK  448  A    between atoms: _1498  and  _1499
REMARK  449  A    between atoms: _1498  and  _1501
REMARK  450  A    between atoms: _1501  and  _1502
REMARK  451  A    between atoms: _1501  and  _1503
REMARK  452  A    between atoms: _1502  and  _1504
REMARK  453  A    between atoms: _1516  and  _1517
REMARK  454  A    between atoms: _1517  and  _1518
REMARK  455  A    between atoms: _1517  and  _1520
REMARK  456  A    between atoms: _1526  and  _1527
REMARK  457  A    between atoms: _1527  and  _1528
REMARK  458  A    between atoms: _1527  and  _1530
REMARK  459  A    between atoms: _1530  and  _1531
REMARK  460  A    between atoms: _1531  and  _1532
REMARK  461  A    between atoms: _1532  and  _1533
REMARK  462  A    between atoms: _1533  and  _1534
REMARK  463  A    between atoms: _1548  and  _1549
REMARK  464  A    between atoms: _1549  and  _1550
REMARK  465  A    between atoms: _1549  and  _1552
REMARK  466  A    between atoms: _1552  and  _1553
REMARK  467  A    between atoms: _1559  and  _1560
REMARK  468  A    between atoms: _1560  and  _1561
REMARK  469  A    between atoms: _1566  and  _1567
REMARK  470  A    between atoms: _1567  and  _1568
REMARK  471  A    between atoms: _1567  and  _1570
REMARK  472  A    between atoms: _1570  and  _1571
REMARK  473  A    between atoms: _1570  and  _1572
REMARK  474  A    between atoms: _1580  and  _1581
REMARK  475  A    between atoms: _1581  and  _1582
REMARK  476  A    between atoms: _1581  and  _1584
REMARK  477  A    between atoms: _1584  and  _1585
REMARK  478  A    between atoms: _1585  and  _1586
REMARK  479  A    between atoms: _1586  and  _1587
REMARK  480  A    between atoms: _1587  and  _1588
REMARK  481  A    between atoms: _1602  and  _1603
REMARK  482  A    between atoms: _1603  and  _1604
REMARK  483  A    between atoms: _1603  and  _1606
REMARK  484  A    between atoms: _1612  and  _1613
REMARK  485  A    between atoms: _1613  and  _1614
REMARK  486  A    between atoms: _1613  and  _1616
REMARK  487  A    between atoms: _1616  and  _1617
REMARK  488  A    between atoms: _1632  and  _1633
REMARK  489  A    between atoms: _1633  and  _1634
REMARK  490  A    between atoms: _1633  and  _1636
REMARK  491  A    between atoms: _1636  and  _1637
REMARK  492  A    between atoms: _1637  and  _1638
REMARK  493  A    between atoms: _1638  and  _1639
REMARK  494  A    between atoms: _1649  and  _1650
REMARK  495  A    between atoms: _1650  and  _1651
REMARK  496  A    between atoms: _1650  and  _1653
REMARK  497  A    between atoms: _1653  and  _1654
REMARK  498  A    between atoms: _1654  and  _1655
REMARK  499  A    between atoms: _1664  and  _1665
REMARK  500  A    between atoms: _1665  and  _1666
REMARK  501  A    between atoms: _1665  and  _1668
REMARK  502  A    between atoms: _1674  and  _1675
REMARK  503  A    between atoms: _1675  and  _1676
REMARK  504  A    between atoms: _1675  and  _1678
REMARK  505  A    between atoms: _1678  and  _1679
REMARK  506  A    between atoms: _1679  and  _1680
REMARK  507  A    between atoms: _1679  and  _1681
REMARK  508  A    between atoms: _1693  and  _1694
REMARK  509  A    between atoms: _1694  and  _1695
REMARK  510  A    between atoms: _1694  and  _1697
REMARK  511  A    between atoms: _1697  and  _1698
REMARK  512  A    between atoms: _1698  and  _1699
REMARK  513  A    between atoms: _1710  and  _1711
REMARK  514  A    between atoms: _1711  and  _1712
REMARK  515  A    between atoms: _1711  and  _1714
REMARK  516  A    between atoms: _1720  and  _1721
REMARK  517  A    between atoms: _1721  and  _1722
REMARK  518  A    between atoms: _1727  and  _1728
REMARK  519  A    between atoms: _1728  and  _1729
REMARK  520  A    between atoms: _1728  and  _1731
REMARK  521  A    between atoms: _1737  and  _1738
REMARK  522  A    between atoms: _1738  and  _1739
REMARK  523  A    between atoms: _1738  and  _1741
REMARK  524  A    between atoms: _1741  and  _1742
REMARK  525  A    between atoms: _1749  and  _1750
REMARK  526  A    between atoms: _1750  and  _1751
REMARK  527  A    between atoms: _1750  and  _1753
REMARK  528  A    between atoms: _1753  and  _1754
REMARK  529  A    between atoms: _1753  and  _1755
REMARK  530  A    between atoms: _1754  and  _1756
REMARK  531  A    between atoms: _1768  and  _1769
REMARK  532  A    between atoms: _1769  and  _1772
REMARK  533  A    between atoms: _1772  and  _1773
REMARK  534  A    between atoms: _1791  and  _1793
REMARK  535  A    between atoms: _1792  and  _1794
REMARK  536  A    between atoms: _1814  and  _1815
REMARK  537  A    between atoms: _1814  and  _1817
REMARK  538  A    between atoms: _1817  and  _1818
REMARK  539  A    between atoms: _1817  and  _1819
REMARK  540  A    between atoms: _1818  and  _1820
REMARK  541  A    between atoms: _1833  and  _1834
REMARK  542  A    between atoms: _1834  and  _1835
REMARK  543  A    between atoms: _1840  and  _1841
REMARK  544  A    between atoms: _1841  and  _1842
REMARK  545  A    between atoms: _1841  and  _1844
REMARK  546  A    between atoms: _1844  and  _1845
REMARK  547  A    between atoms: _1845  and  _1846
REMARK  548  A    between atoms: _1857  and  _1858
REMARK  549  A    between atoms: _1858  and  _1859
REMARK  550  A    between atoms: _1858  and  _1861
REMARK  551  A    between atoms: _1861  and  _1862
REMARK  552  A    between atoms: _1877  and  _1878
REMARK  553  A    between atoms: _1878  and  _1879
REMARK  554  A    between atoms: _1884  and  _1885
REMARK  555  A    between atoms: _1885  and  _1886
REMARK  556  A    between atoms: _1885  and  _1888
REMARK  557  A    between atoms: _1888  and  _1889
REMARK  558  A    between atoms: _1888  and  _1890
REMARK  559  A    between atoms: _1900  and  _1901
REMARK  560  A    between atoms: _1901  and  _1902
REMARK  561  A    between atoms: _1907  and  _1908
REMARK  562  A    between atoms: _1908  and  _1909
REMARK  563  A    between atoms: _1908  and  _1911
REMARK  564  A    between atoms: _1911  and  _1912
REMARK  565  A    between atoms: _1927  and  _1928
REMARK  566  A    between atoms: _1928  and  _1929
REMARK  567  A    between atoms: _1928  and  _1931
REMARK  568  A    between atoms: _1931  and  _1932
REMARK  569  A    between atoms: _1937  and  _1938
REMARK  570  A    between atoms: _1948  and  _1949
REMARK  571  A    between atoms: _1949  and  _1950
REMARK  572  A    between atoms: _1949  and  _1952
REMARK  573  A    between atoms: _1952  and  _1953
REMARK  574  A    between atoms: _1959  and  _1960
REMARK  575  A    between atoms: _1960  and  _1961
REMARK  576  A    between atoms: _1960  and  _1963
REMARK  577  A    between atoms: _1969  and  _1970
REMARK  578  A    between atoms: _1970  and  _1971
REMARK  579  A    between atoms: _1970  and  _1973
REMARK  580  A    between atoms: _1973  and  _1974
REMARK  581  A    between atoms: _1979  and  _1980
REMARK  582  A    between atoms: _1990  and  _1991
REMARK  583  A    between atoms: _1991  and  _1992
REMARK  584  A    between atoms: _1991  and  _1994
REMARK  585  A    between atoms: _1994  and  _1995
REMARK  586  A    between atoms: _1995  and  _1996
REMARK  587  A    between atoms: _1995  and  _1997
REMARK  588  A    between atoms: _2009  and  _2010
REMARK  589  A    between atoms: _2010  and  _2011
REMARK  590  A    between atoms: _2010  and  _2013
REMARK  591  A    between atoms: _2013  and  _2014
REMARK  592  A    between atoms: _2013  and  _2015
REMARK  593  A    between atoms: _2025  and  _2026
REMARK  594  A    between atoms: _2026  and  _2027
REMARK  595  A    between atoms: _2026  and  _2029
REMARK  596  A    between atoms: _2035  and  _2036
REMARK  597  A    between atoms: _2036  and  _2037
REMARK  598  A    between atoms: _2036  and  _2039
REMARK  599  A    between atoms: _2039  and  _2040
REMARK  600  A    between atoms: _2040  and  _2041
REMARK  601  A    between atoms: _2050  and  _2051
REMARK  602  A    between atoms: _2051  and  _2052
REMARK  603  A    between atoms: _2051  and  _2054
REMARK  604  A    between atoms: _2054  and  _2055
REMARK  605  A    between atoms: _2055  and  _2056
REMARK  606  A    between atoms: _2056  and  _2057
REMARK  607  A    between atoms: _2057  and  _2058
REMARK  608  A    between atoms: _2072  and  _2073
REMARK  609  A    between atoms: _2073  and  _2074
REMARK  610  A    between atoms: _2073  and  _2076
REMARK  611  A    between atoms: _2076  and  _2077
REMARK  612  A    between atoms: _2076  and  _2078
REMARK  613  A    between atoms: _2088  and  _2089
REMARK  614  A    between atoms: _2089  and  _2090
REMARK  615  A    between atoms: _2089  and  _2092
REMARK  616  A    between atoms: _2092  and  _2093
REMARK  617  A    between atoms: _2092  and  _2094
REMARK  618  A    between atoms: _2102  and  _2103
REMARK  619  A    between atoms: _2103  and  _2104
REMARK  620  A    between atoms: _2103  and  _2106
REMARK  621  A    between atoms: _2106  and  _2107
REMARK  622  A    between atoms: _2106  and  _2108
REMARK  623  A    between atoms: _2118  and  _2119
REMARK  624  A    between atoms: _2119  and  _2120
REMARK  625  A    between atoms: _2119  and  _2122
REMARK  626  A    between atoms: _2122  and  _2123
REMARK  627  A    between atoms: _2122  and  _2124
REMARK  628  A    between atoms: _2123  and  _2125
REMARK  629  A    between atoms: _2137  and  _2138
REMARK  630  A    between atoms: _2138  and  _2139
REMARK  631  A    between atoms: _2138  and  _2141
REMARK  632  A    between atoms: _2141  and  _2142
REMARK  633  A    between atoms: _2141  and  _2143
REMARK  634  A    between atoms: _2151  and  _2152
REMARK  635  A    between atoms: _2152  and  _2153
REMARK  636  A    between atoms: _2152  and  _2155
REMARK  637  A    between atoms: _2155  and  _2156
REMARK  638  A    between atoms: _2156  and  _2157
REMARK  639  A    between atoms: _2157  and  _2158
REMARK  640  A    between atoms: _2158  and  _2159
REMARK  641  A    between atoms: _2173  and  _2174
REMARK  642  A    between atoms: _2174  and  _2175
REMARK  643  A    between atoms: _2174  and  _2177
REMARK  644  A    between atoms: _2177  and  _2178
REMARK  645  A    between atoms: _2190  and  _2191
REMARK  646  A    between atoms: _2191  and  _2192
REMARK  647  A    between atoms: _2191  and  _2194
REMARK  648  A    between atoms: _2194  and  _2195
REMARK  649  A    between atoms: _2204  and  _2205
REMARK  650  A    between atoms: _2205  and  _2206
REMARK  651  A    between atoms: _2205  and  _2208
REMARK  652  A    between atoms: _2208  and  _2209
REMARK  653  A    between atoms: _2216  and  _2217
REMARK  654  A    between atoms: _2217  and  _2218
REMARK  655  A    between atoms: _2217  and  _2220
REMARK  656  A    between atoms: _2220  and  _2221
REMARK  657  A    between atoms: _2228  and  _2229
REMARK  658  A    between atoms: _2229  and  _2230
REMARK  659  A    between atoms: _2229  and  _2232
REMARK  660  A    between atoms: _2232  and  _2233
REMARK  661  A    between atoms: _2233  and  _2234
REMARK  662  A    between atoms: _2243  and  _2244
REMARK  663  A    between atoms: _2244  and  _2245
REMARK  664  A    between atoms: _2244  and  _2247
REMARK  665  A    between atoms: _2247  and  _2248
REMARK  666  A    between atoms: _2248  and  _2249
REMARK  667  A    between atoms: _2260  and  _2261
REMARK  668  A    between atoms: _2261  and  _2262
REMARK  669  A    between atoms: _2261  and  _2264
REMARK  670  A    between atoms: _2264  and  _2265
REMARK  671  A    between atoms: _2270  and  _2271
REMARK  672  A    between atoms: _2281  and  _2282
REMARK  673  A    between atoms: _2282  and  _2283
REMARK  674  A    between atoms: _2282  and  _2285
REMARK  675  A    between atoms: _2291  and  _2292
REMARK  676  A    between atoms: _2292  and  _2293
REMARK  677  A    between atoms: _2292  and  _2295
REMARK  678  A    between atoms: _2295  and  _2296
REMARK  679  A    between atoms: _2315  and  _2316
REMARK  680  A    between atoms: _2316  and  _2317
REMARK  681  A    between atoms: _2316  and  _2319
REMARK  682  A    between atoms: _2319  and  _2320
REMARK  683  A    between atoms: _2320  and  _2321
REMARK  684  A    between atoms: _2330  and  _2331
REMARK  685  A    between atoms: _2331  and  _2332
REMARK  686  A    between atoms: _2331  and  _2334
REMARK  687  A    between atoms: _2334  and  _2335
REMARK  688  A    between atoms: _2341  and  _2342
REMARK  689  A    between atoms: _2342  and  _2343
REMARK  690  A    between atoms: _2342  and  _2345
REMARK  691  A    between atoms: _2345  and  _2346
REMARK  692  A    between atoms: _2352  and  _2353
REMARK  693  A    between atoms: _2353  and  _2354
REMARK  694  A    between atoms: _2353  and  _2356
REMARK  695  A    between atoms: _2362  and  _2363
REMARK  696  A    between atoms: _2363  and  _2364
REMARK  697  A    between atoms: _2369  and  _2370
REMARK  698  A    between atoms: _2370  and  _2371
REMARK  699  A    between atoms: _2376  and  _2377
REMARK  700  A    between atoms: _2377  and  _2378
REMARK  701  A    between atoms: _2377  and  _2380
REMARK  702  A    between atoms: _2380  and  _2381
REMARK  703  A    between atoms: _2387  and  _2388
REMARK  704  A    between atoms: _2388  and  _2389
REMARK  705  A    between atoms: _2388  and  _2391
REMARK  706  A    between atoms: _2391  and  _2392
REMARK  707  A    between atoms: _2407  and  _2408
REMARK  708  A    between atoms: _2408  and  _2409
REMARK  709  A    between atoms: _2408  and  _2411
REMARK  710  A    between atoms: _2411  and  _2412
REMARK  711  A    between atoms: _2411  and  _2413
REMARK  712  A    between atoms: _2421  and  _2422
REMARK  713  A    between atoms: _2422  and  _2423
REMARK  714  A    between atoms: _2422  and  _2425
REMARK  715  A    between atoms: _2425  and  _2426
REMARK  716  A    between atoms: _2425  and  _2427
REMARK  717  A    between atoms: _2437  and  _2438
REMARK  718  A    between atoms: _2438  and  _2439
REMARK  719  A    between atoms: _2438  and  _2441
REMARK  720  A    between atoms: _2441  and  _2442
REMARK  721  A    between atoms: _2442  and  _2443
REMARK  722  A    between atoms: _2443  and  _2444
REMARK  723  A    between atoms: _2461  and  _2462
REMARK  724  A    between atoms: _2462  and  _2463
REMARK  725  A    between atoms: _2462  and  _2465
REMARK  726  A    between atoms: _2465  and  _2466
REMARK  727  A    between atoms: _2465  and  _2467
REMARK  728  A    between atoms: _2475  and  _2476
REMARK  729  A    between atoms: _2476  and  _2477
REMARK  730  A    between atoms: _2476  and  _2479
REMARK  731  A    between atoms: _2479  and  _2480
REMARK  732  A    between atoms: _2487  and  _2488
REMARK  733  A    between atoms: _2488  and  _2489
REMARK  734  A    between atoms: _2488  and  _2491
REMARK  735  A    between atoms: _2491  and  _2492
REMARK  736  A    between atoms: _2491  and  _2493
REMARK  737  A    between atoms: _2501  and  _2502
REMARK  738  A    between atoms: _2502  and  _2503
REMARK  739  A    between atoms: _2508  and  _2509
REMARK  740  A    between atoms: _2509  and  _2510
REMARK  741  A    between atoms: _2509  and  _2512
REMARK  742  A    between atoms: _2512  and  _2513
REMARK  743  A    between atoms: _2513  and  _2514
REMARK  744  A    between atoms: _2524  and  _2525
REMARK  745  A    between atoms: _2537  and  _2538
REMARK  746  A    between atoms: _2538  and  _2539
REMARK  747  A    between atoms: _2538  and  _2541
REMARK  748  A    between atoms: _2541  and  _2542
REMARK  749  A    between atoms: _2542  and  _2543
REMARK  750  A    between atoms: _2543  and  _2544
REMARK  751  A    between atoms: _2554  and  _2555
REMARK  752  A    between atoms: _2555  and  _2556
REMARK  753  A    between atoms: _2561  and  _2562
REMARK  754  A    between atoms: _2562  and  _2563
REMARK  755  A    between atoms: _2562  and  _2565
REMARK  756  A    between atoms: _2565  and  _2566
REMARK  757  A    between atoms: _2566  and  _2567
REMARK  758  A    between atoms: _2567  and  _2568
REMARK  759  A    between atoms: _2585  and  _2586
REMARK  760  A    between atoms: _2586  and  _2587
REMARK  761  A    between atoms: _2592  and  _2593
REMARK  762  A    between atoms: _2593  and  _2594
REMARK  763  A    between atoms: _2593  and  _2596
REMARK  764  A    between atoms: _2596  and  _2597
REMARK  765  A    between atoms: _2596  and  _2598
REMARK  766  A    between atoms: _2606  and  _2607
REMARK  767  A    between atoms: _2607  and  _2608
REMARK  768  A    between atoms: _2607  and  _2610
REMARK  769  A    between atoms: _2610  and  _2611
REMARK  770  A    between atoms: _2611  and  _2612
REMARK  771  A    between atoms: _2612  and  _2613
REMARK  772  A    between atoms: _2613  and  _2614
REMARK  773  A    between atoms: _2628  and  _2629
REMARK  774  A    between atoms: _2629  and  _2630
REMARK  775  A    between atoms: _2629  and  _2632
REMARK  776  A    between atoms: _2632  and  _2633
REMARK  777  A    between atoms: _2632  and  _2634
REMARK  778  A    between atoms: _2644  and  _2645
REMARK  779  A    between atoms: _2645  and  _2646
REMARK  780  A    between atoms: _2645  and  _2648
REMARK  781  A    between atoms: _2648  and  _2649
REMARK  782  A    between atoms: _2648  and  _2650
REMARK  783  A    between atoms: _2649  and  _2651
REMARK  784  A    between atoms: _2663  and  _2664
REMARK  785  A    between atoms: _2664  and  _2665
REMARK  786  A    between atoms: _2664  and  _2667
REMARK  787  A    between atoms: _2667  and  _2668
REMARK  788  A    between atoms: _2668  and  _2669
REMARK  789  A    between atoms: _2668  and  _2670
REMARK  790  A    between atoms: _2682  and  _2683
REMARK  791  A    between atoms: _2683  and  _2684
REMARK  792  A    between atoms: _2683  and  _2686
REMARK  793  A    between atoms: _2686  and  _2687
REMARK  794  A    between atoms: _2699  and  _2700
REMARK  795  A    between atoms: _2700  and  _2701
REMARK  796  A    between atoms: _2700  and  _2703
REMARK  797  A    between atoms: _2703  and  _2704
REMARK  798  A    between atoms: _2704  and  _2705
REMARK  799  A    between atoms: _2704  and  _2706
REMARK  800  A    between atoms: _2718  and  _2719
REMARK  801  A    between atoms: _2719  and  _2720
REMARK  802  A    between atoms: _2719  and  _2722
REMARK  803  A    between atoms: _2722  and  _2723
REMARK  804  A    between atoms: _2723  and  _2724
REMARK  805  A    between atoms: _2724  and  _2725
REMARK  806  A    between atoms: _2725  and  _2726
REMARK  807  A    between atoms: _2740  and  _2741
REMARK  808  A    between atoms: _2741  and  _2742
REMARK  809  A    between atoms: _2741  and  _2744
REMARK  810  A    between atoms: _2744  and  _2745
REMARK  811  A    between atoms: _2745  and  _2746
REMARK  812  A    between atoms: _2755  and  _2756
REMARK  813  A    between atoms: _2756  and  _2757
REMARK  814  A    between atoms: _2756  and  _2759
REMARK  815  A    between atoms: _2759  and  _2760
REMARK  816  A    between atoms: _2767  and  _2768
REMARK  817  A    between atoms: _2768  and  _2769
REMARK  818  A    between atoms: _2768  and  _2771
REMARK  819  A    between atoms: _2771  and  _2772
REMARK  820  A    between atoms: _2772  and  _2773
REMARK  821  A    between atoms: _2784  and  _2785
REMARK  822  A    between atoms: _2785  and  _2786
REMARK  823  A    between atoms: _2785  and  _2788
REMARK  824  A    between atoms: _2788  and  _2789
REMARK  825  A    between atoms: _2788  and  _2790
REMARK  826  A    between atoms: _2798  and  _2799
REMARK  827  A    between atoms: _2799  and  _2800
REMARK  828  A    between atoms: _2799  and  _2802
REMARK  829  A    between atoms: _2802  and  _2803
REMARK  830  A    between atoms: _2803  and  _2804
REMARK  831  A    between atoms: _2813  and  _2814
REMARK  832  A    between atoms: _2814  and  _2815
REMARK  833  A    between atoms: _2814  and  _2817
REMARK  834  A    between atoms: _2817  and  _2818
REMARK  835  A    between atoms: _2823  and  _2824
REMARK  836  A    between atoms: _2834  and  _2835
REMARK  837  A    between atoms: _2835  and  _2838
REMARK  838  A    between atoms: _2838  and  _2839
REMARK  839  A    between atoms: _2839  and  _2840
REMARK  840  A    between atoms: _2839  and  _2841
REMARK  841  A    between atoms: _2884  and  _2885
REMARK  842  A    between atoms: _2884  and  _2887
REMARK  843  A    between atoms: _2887  and  _2888
REMARK  844  A    between atoms: _2888  and  _2889
REMARK  845  A    between atoms: _2899  and  _2900
REMARK  846  A    between atoms: _2900  and  _2901
REMARK  847  A    between atoms: _2900  and  _2903
REMARK  848  A    between atoms: _2903  and  _2904
REMARK  849  A    between atoms: _2904  and  _2905
REMARK  850  A    between atoms: _2905  and  _2906
REMARK  851  A    between atoms: _2923  and  _2924
REMARK  852  A    between atoms: _2924  and  _2925
REMARK  853  A    between atoms: _2924  and  _2927
REMARK  854  A    between atoms: _2927  and  _2928
REMARK  855  A    between atoms: _2928  and  _2929
REMARK  856  A    between atoms: _2929  and  _2930
REMARK  857  A    between atoms: _2947  and  _2948
REMARK  858  A    between atoms: _2948  and  _2949
REMARK  859  A    between atoms: _2948  and  _2951
REMARK  860  A    between atoms: _2951  and  _2952
REMARK  861  A    between atoms: _2951  and  _2953
REMARK  862  A    between atoms: _2952  and  _2954
REMARK  863  A    between atoms: _2966  and  _2967
REMARK  864  A    between atoms: _2967  and  _2968
REMARK  865  A    between atoms: _2967  and  _2970
REMARK  866  A    between atoms: _2970  and  _2971
REMARK  867  A    between atoms: _2971  and  _2972
REMARK  868  A    between atoms: _2972  and  _2973
REMARK  869  A    between atoms: _2973  and  _2974
REMARK  870  A    between atoms: _2988  and  _2989
REMARK  871  A    between atoms: _2989  and  _2990
REMARK  872  A    between atoms: _2989  and  _2992
REMARK  873  A    between atoms: _2992  and  _2993
REMARK  874  A    between atoms: _2993  and  _2994
REMARK  875  A    between atoms: _3003  and  _3004
REMARK  876  A    between atoms: _3004  and  _3005
REMARK  877  A    between atoms: _3004  and  _3007
REMARK  878  A    between atoms: _3007  and  _3008
REMARK  879  A    between atoms: _3007  and  _3009
REMARK  880  A    between atoms: _3008  and  _3010
REMARK  881  A    between atoms: _3022  and  _3023
REMARK  882  A    between atoms: _3023  and  _3024
REMARK  883  A    between atoms: _3023  and  _3026
REMARK  884  A    between atoms: _3026  and  _3027
REMARK  885  A    between atoms: _3026  and  _3028
REMARK  886  A    between atoms: _3038  and  _3039
REMARK  887  A    between atoms: _3039  and  _3040
REMARK  888  A    between atoms: _3039  and  _3042
REMARK  889  A    between atoms: _3042  and  _3043
REMARK  890  A    between atoms: _3043  and  _3044
REMARK  891  A    between atoms: _3044  and  _3045
REMARK  892  A    between atoms: _3045  and  _3046
REMARK  893  A    between atoms: _3060  and  _3061
REMARK  894  A    between atoms: _3061  and  _3062
REMARK  895  A    between atoms: _3061  and  _3064
REMARK  896  A    between atoms: _3064  and  _3065
REMARK  897  A    between atoms: _3065  and  _3066
REMARK  898  A    between atoms: _3066  and  _3067
REMARK  899  A    between atoms: _3067  and  _3068
REMARK  900  A    between atoms: _3082  and  _3083
REMARK  901  A    between atoms: _3083  and  _3084
REMARK  902  A    between atoms: _3083  and  _3086
REMARK  903  A    between atoms: _3086  and  _3087
REMARK  904  A    between atoms: _3099  and  _3100
REMARK  905  A    between atoms: _3100  and  _3101
REMARK  906  A    between atoms: _3100  and  _3103
REMARK  907  A    between atoms: _3103  and  _3104
REMARK  908  A    between atoms: _3110  and  _3111
REMARK  909  A    between atoms: _3111  and  _3112
REMARK  910  A    between atoms: _3111  and  _3114
REMARK  911  A    between atoms: _3114  and  _3115
REMARK  912  A    between atoms: _3115  and  _3116
REMARK  913  A    between atoms: _3127  and  _3128
REMARK  914  A    between atoms: _3128  and  _3129
REMARK  915  A    between atoms: _3128  and  _3131
REMARK  916  A    between atoms: _3131  and  _3132
REMARK  917  A    between atoms: _3147  and  _3148
REMARK  918  A    between atoms: _3148  and  _3149
REMARK  919  A    between atoms: _3148  and  _3151
REMARK  920  A    between atoms: _3151  and  _3152
REMARK  921  A    between atoms: _3151  and  _3153
REMARK  922  A    between atoms: _3152  and  _3154
REMARK  923  A    between atoms: _3166  and  _3167
REMARK  924  A    between atoms: _3167  and  _3168
REMARK  925  A    between atoms: _3173  and  _3174
REMARK  926  A    between atoms: _3174  and  _3175
REMARK  927  A    between atoms: _3174  and  _3177
REMARK  928  A    between atoms: _3177  and  _3178
REMARK  929  A    between atoms: _3183  and  _3184
REMARK  930  A    between atoms: _3195  and  _3196
REMARK  931  A    between atoms: _3208  and  _3209
REMARK  932  A    between atoms: _3209  and  _3210
REMARK  933  A    between atoms: _3209  and  _3212
REMARK  934  A    between atoms: _3212  and  _3213
REMARK  935  A    between atoms: _3212  and  _3214
REMARK  936  A    between atoms: _3213  and  _3215
REMARK  937  A    between atoms: _3227  and  _3228
REMARK  938  A    between atoms: _3228  and  _3229
REMARK  939  A    between atoms: _3228  and  _3231
REMARK  940  A    between atoms: _3231  and  _3232
REMARK  941  A    between atoms: _3231  and  _3233
REMARK  942  A    between atoms: _3241  and  _3242
REMARK  943  A    between atoms: _3242  and  _3243
REMARK  944  A    between atoms: _3242  and  _3245
REMARK  945  A    between atoms: _3245  and  _3246
REMARK  946  A    between atoms: _3246  and  _3247
REMARK  947  A    between atoms: _3246  and  _3248
REMARK  948  A    between atoms: _3260  and  _3261
REMARK  949  A    between atoms: _3261  and  _3262
REMARK  950  A    between atoms: _3261  and  _3264
REMARK  951  A    between atoms: _3264  and  _3265
REMARK  952  A    between atoms: _3280  and  _3281
REMARK  953  A    between atoms: _3281  and  _3282
REMARK  954  A    between atoms: _3281  and  _3284
REMARK  955  A    between atoms: _3284  and  _3285
REMARK  956  A    between atoms: _3284  and  _3286
REMARK  957  A    between atoms: _3296  and  _3297
REMARK  958  A    between atoms: _3297  and  _3298
REMARK  959  A    between atoms: _3297  and  _3300
REMARK  960  A    between atoms: _3300  and  _3301
REMARK  961  A    between atoms: _3301  and  _3302
REMARK                            x       y       z     vdW  Elec       q    Type
REMARK                         _______ _______ _______ _____ _____    ______ ____
ROOT
ATOM      1  N   UNL     1       6.747  37.869  41.440  0.00  0.00    +0.000 NA
ENDROOT
TORSDOF 0
REMARK  Name = /Users/mlugowska/PhD/ML_residence_time_prediction/protein_files/5J20_protein.pdb
REMARK  961 active torsions:
REMARK  status: ('A' for Active; 'I' for Inactive)
REMARK    1  A    between atoms: _2  and  _3
REMARK    2  A    between atoms: _2  and  _5
REMARK    3  A    between atoms: _10  and  _11
REMARK    4  A    between atoms: _11  and  _12
REMARK    5  A    between atoms: _11  and  _14
REMARK    6  A    between atoms: _14  and  _15
REMARK    7  A    between atoms: _14  and  _16
REMARK    8  A    between atoms: _26  and  _27
REMARK    9  A    between atoms: _27  and  _28
REMARK   10  A    between atoms: _27  and  _30
REMARK   11  A    between atoms: _30  and  _31
REMARK   12  A    between atoms: _31  and  _32
REMARK   13  A    between atoms: _41  and  _42
REMARK   14  A    between atoms: _42  and  _43
REMARK   15  A    between atoms: _42  and  _45
REMARK   16  A    between atoms: _45  and  _46
REMARK   17  A    between atoms: _45  and  _47
REMARK   18  A    between atoms: _55  and  _56
REMARK   19  A    between atoms: _56  and  _57
REMARK   20  A    between atoms: _56  and  _59
REMARK   21  A    between atoms: _59  and  _60
REMARK   22  A    between atoms: _75  and  _76
REMARK   23  A    between atoms: _76  and  _77
REMARK   24  A    between atoms: _76  and  _79
REMARK   25  A    between atoms: _85  and  _86
REMARK   26  A    between atoms: _86  and  _87
REMARK   27  A    between atoms: _86  and  _89
REMARK   28  A    between atoms: _89  and  _90
REMARK   29  A    between atoms: _105  and  _106
REMARK   30  A    between atoms: _106  and  _107
REMARK   31  A    between atoms: _106  and  _109
REMARK   32  A    between atoms: _109  and  _110
REMARK   33  A    between atoms: _110  and  _111
REMARK   34  A    between atoms: _122  and  _123
REMARK   35  A    between atoms: _123  and  _124
REMARK   36  A    between atoms: _123  and  _126
REMARK   37  A    between atoms: _132  and  _133
REMARK   38  A    between atoms: _133  and  _134
REMARK   39  A    between atoms: _133  and  _136
REMARK   40  A    between atoms: _136  and  _137
REMARK   41  A    between atoms: _137  and  _138
REMARK   42  A    between atoms: _147  and  _148
REMARK   43  A    between atoms: _148  and  _149
REMARK   44  A    between atoms: _148  and  _151
REMARK   45  A    between atoms: _151  and  _152
REMARK   46  A    between atoms: _151  and  _153
REMARK   47  A    between atoms: _152  and  _154
REMARK   48  A    between atoms: _166  and  _167
REMARK   49  A    between atoms: _167  and  _168
REMARK   50  A    between atoms: _167  and  _170
REMARK   51  A    between atoms: _176  and  _177
REMARK   52  A    between atoms: _177  and  _178
REMARK   53  A    between atoms: _177  and  _180
REMARK   54  A    between atoms: _180  and  _181
REMARK   55  A    between atoms: _181  and  _182
REMARK   56  A    between atoms: _193  and  _194
REMARK   57  A    between atoms: _194  and  _195
REMARK   58  A    between atoms: _194  and  _197
REMARK   59  A    between atoms: _197  and  _198
REMARK   60  A    between atoms: _198  and  _199
REMARK   61  A    between atoms: _198  and  _200
REMARK   62  A    between atoms: _212  and  _213
REMARK   63  A    between atoms: _213  and  _214
REMARK   64  A    between atoms: _213  and  _216
REMARK   65  A    between atoms: _216  and  _217
REMARK   66  A    between atoms: _217  and  _218
REMARK   67  A    between atoms: _218  and  _219
REMARK   68  A    between atoms: _229  and  _230
REMARK   69  A    between atoms: _230  and  _231
REMARK   70  A    between atoms: _230  and  _233
REMARK   71  A    between atoms: _233  and  _234
REMARK   72  A    between atoms: _240  and  _241
REMARK   73  A    between atoms: _241  and  _242
REMARK   74  A    between atoms: _241  and  _244
REMARK   75  A    between atoms: _244  and  _245
REMARK   76  A    between atoms: _245  and  _246
REMARK   77  A    between atoms: _245  and  _247
REMARK   78  A    between atoms: _259  and  _260
REMARK   79  A    between atoms: _260  and  _261
REMARK   80  A    between atoms: _260  and  _263
REMARK   81  A    between atoms: _263  and  _264
REMARK   82  A    between atoms: _263  and  _265
REMARK   83  A    between atoms: _264  and  _266
REMARK   84  A    between atoms: _278  and  _279
REMARK   85  A    between atoms: _279  and  _280
REMARK   86  A    between atoms: _279  and  _282
REMARK   87  A    between atoms: _282  and  _283
REMARK   88  A    between atoms: _282  and  _284
REMARK   89  A    between atoms: _283  and  _285
REMARK   90  A    between atoms: _297  and  _298
REMARK   91  A    between atoms: _298  and  _299
REMARK   92  A    between atoms: _298  and  _301
REMARK   93  A    between atoms: _301  and  _302
REMARK   94  A    between atoms: _311  and  _312
REMARK   95  A    between atoms: _312  and  _313
REMARK   96  A    between atoms: _312  and  _315
REMARK   97  A    between atoms: _315  and  _316
REMARK   98  A    between atoms: _315  and  _317
REMARK   99  A    between atoms: _325  and  _326
REMARK  100  A    between atoms: _326  and  _327
REMARK  101  A    between atoms: _326  and  _329
REMARK  102  A    between atoms: _329  and  _330
REMARK  103  A    between atoms: _345  and  _346
REMARK  104  A    between atoms: _346  and  _347
REMARK  105  A    between atoms: _346  and  _349
REMARK  106  A    between atoms: _349  and  _350
REMARK  107  A    between atoms: _355  and  _356
REMARK  108  A    between atoms: _366  and  _367
REMARK  109  A    between atoms: _367  and  _368
REMARK  110  A    between atoms: _367  and  _370
REMARK  111  A    between atoms: _370  and  _371
REMARK  112  A    between atoms: _377  and  _378
REMARK  113  A    between atoms: _378  and  _379
REMARK  114  A    between atoms: _378  and  _381
REMARK  115  A    between atoms: _381  and  _382
REMARK  116  A    between atoms: _391  and  _392
REMARK  117  A    between atoms: _392  and  _393
REMARK  118  A    between atoms: _392  and  _395
REMARK  119  A    between atoms: _395  and  _396
REMARK  120  A    between atoms: _396  and  _397
REMARK  121  A    between atoms: _397  and  _398
REMARK  122  A    between atoms: _398  and  _399
REMARK  123  A    between atoms: _413  and  _414
REMARK  124  A    between atoms: _414  and  _415
REMARK  125  A    between atoms: _414  and  _417
REMARK  126  A    between atoms: _417  and  _418
REMARK  127  A    between atoms: _418  and  _419
REMARK  128  A    between atoms: _428  and  _429
REMARK  129  A    between atoms: _429  and  _430
REMARK  130  A    between atoms: _429  and  _432
REMARK  131  A    between atoms: _432  and  _433
REMARK  132  A    between atoms: _432  and  _434
REMARK  133  A    between atoms: _433  and  _435
REMARK  134  A    between atoms: _447  and  _448
REMARK  135  A    between atoms: _448  and  _449
REMARK  136  A    between atoms: _448  and  _451
REMARK  137  A    between atoms: _451  and  _452
REMARK  138  A    between atoms: _467  and  _468
REMARK  139  A    between atoms: _468  and  _469
REMARK  140  A    between atoms: _468  and  _471
REMARK  141  A    between atoms: _471  and  _472
REMARK  142  A    between atoms: _472  and  _473
REMARK  143  A    between atoms: _472  and  _474
REMARK  144  A    between atoms: _486  and  _487
REMARK  145  A    between atoms: _487  and  _488
REMARK  146  A    between atoms: _487  and  _490
REMARK  147  A    between atoms: _490  and  _491
REMARK  148  A    between atoms: _491  and  _492
REMARK  149  A    between atoms: _492  and  _493
REMARK  150  A    between atoms: _510  and  _511
REMARK  151  A    between atoms: _511  and  _512
REMARK  152  A    between atoms: _511  and  _514
REMARK  153  A    between atoms: _514  and  _515
REMARK  154  A    between atoms: _515  and  _516
REMARK  155  A    between atoms: _525  and  _526
REMARK  156  A    between atoms: _526  and  _527
REMARK  157  A    between atoms: _526  and  _529
REMARK  158  A    between atoms: _529  and  _530
REMARK  159  A    between atoms: _530  and  _531
REMARK  160  A    between atoms: _530  and  _532
REMARK  161  A    between atoms: _544  and  _545
REMARK  162  A    between atoms: _545  and  _546
REMARK  163  A    between atoms: _545  and  _548
REMARK  164  A    between atoms: _548  and  _549
REMARK  165  A    between atoms: _548  and  _550
REMARK  166  A    between atoms: _549  and  _551
REMARK  167  A    between atoms: _563  and  _564
REMARK  168  A    between atoms: _564  and  _565
REMARK  169  A    between atoms: _564  and  _567
REMARK  170  A    between atoms: _567  and  _568
REMARK  171  A    between atoms: _574  and  _575
REMARK  172  A    between atoms: _575  and  _576
REMARK  173  A    between atoms: _575  and  _578
REMARK  174  A    between atoms: _578  and  _579
REMARK  175  A    between atoms: _588  and  _589
REMARK  176  A    between atoms: _589  and  _590
REMARK  177  A    between atoms: _589  and  _592
REMARK  178  A    between atoms: _592  and  _593
REMARK  179  A    between atoms: _599  and  _600
REMARK  180  A    between atoms: _600  and  _601
REMARK  181  A    between atoms: _600  and  _603
REMARK  182  A    between atoms: _603  and  _604
REMARK  183  A    between atoms: _610  and  _611
REMARK  184  A    between atoms: _611  and  _612
REMARK  185  A    between atoms: _611  and  _614
REMARK  186  A    between atoms: _614  and  _615
REMARK  187  A    between atoms: _622  and  _623
REMARK  188  A    between atoms: _623  and  _624
REMARK  189  A    between atoms: _623  and  _626
REMARK  190  A    between atoms: _632  and  _633
REMARK  191  A    between atoms: _633  and  _634
REMARK  192  A    between atoms: _633  and  _636
REMARK  193  A    between atoms: _636  and  _637
REMARK  194  A    between atoms: _637  and  _638
REMARK  195  A    between atoms: _637  and  _639
REMARK  196  A    between atoms: _651  and  _652
REMARK  197  A    between atoms: _652  and  _653
REMARK  198  A    between atoms: _652  and  _655
REMARK  199  A    between atoms: _655  and  _656
REMARK  200  A    between atoms: _663  and  _664
REMARK  201  A    between atoms: _664  and  _665
REMARK  202  A    between atoms: _664  and  _667
REMARK  203  A    between atoms: _667  and  _668
REMARK  204  A    between atoms: _668  and  _669
REMARK  205  A    between atoms: _669  and  _670
REMARK  206  A    between atoms: _670  and  _671
REMARK  207  A    between atoms: _685  and  _686
REMARK  208  A    between atoms: _686  and  _687
REMARK  209  A    between atoms: _686  and  _689
REMARK  210  A    between atoms: _689  and  _690
REMARK  211  A    between atoms: _689  and  _691
REMARK  212  A    between atoms: _690  and  _692
REMARK  213  A    between atoms: _704  and  _705
REMARK  214  A    between atoms: _705  and  _706
REMARK  215  A    between atoms: _705  and  _708
REMARK  216  A    between atoms: _708  and  _709
REMARK  217  A    between atoms: _709  and  _710
REMARK  218  A    between atoms: _710  and  _711
REMARK  219  A    between atoms: _728  and  _729
REMARK  220  A    between atoms: _729  and  _730
REMARK  221  A    between atoms: _729  and  _732
REMARK  222  A    between atoms: _732  and  _733
REMARK  223  A    between atoms: _738  and  _739
REMARK  224  A    between atoms: _749  and  _750
REMARK  225  A    between atoms: _750  and  _751
REMARK  226  A    between atoms: _750  and  _753
REMARK  227  A    between atoms: _753  and  _754
REMARK  228  A    between atoms: _754  and  _755
REMARK  229  A    between atoms: _764  and  _765
REMARK  230  A    between atoms: _765  and  _766
REMARK  231  A    between atoms: _765  and  _768
REMARK  232  A    between atoms: _772  and  _773
REMARK  233  A    between atoms: _773  and  _774
REMARK  234  A    between atoms: _773  and  _776
REMARK  235  A    between atoms: _776  and  _777
REMARK  236  A    between atoms: _777  and  _778
REMARK  237  A    between atoms: _777  and  _779
REMARK  238  A    between atoms: _791  and  _792
REMARK  239  A    between atoms: _792  and  _793
REMARK  240  A    between atoms: _792  and  _795
REMARK  241  A    between atoms: _795  and  _796
REMARK  242  A    between atoms: _795  and  _797
REMARK  243  A    between atoms: _805  and  _806
REMARK  244  A    between atoms: _806  and  _807
REMARK  245  A    between atoms: _806  and  _809
REMARK  246  A    between atoms: _809  and  _810
REMARK  247  A    between atoms: _818  and  _819
REMARK  248  A    between atoms: _831  and  _832
REMARK  249  A    between atoms: _832  and  _833
REMARK  250  A    between atoms: _832  and  _835
REMARK  251  A    between atoms: _835  and  _836
REMARK  252  A    between atoms: _842  and  _843
REMARK  253  A    between atoms: _843  and  _844
REMARK  254  A    between atoms: _843  and  _846
REMARK  255  A    between atoms: _846  and  _847
REMARK  256  A    between atoms: _847  and  _848
REMARK  257  A    between atoms: _848  and  _849
REMARK  258  A    between atoms: _849  and  _850
REMARK  259  A    between atoms: _864  and  _865
REMARK  260  A    between atoms: _865  and  _866
REMARK  261  A    between atoms: _865  and  _868
REMARK  262  A    between atoms: _868  and  _869
REMARK  263  A    between atoms: _869  and  _870
REMARK  264  A    between atoms: _869  and  _871
REMARK  265  A    between atoms: _883  and  _884
REMARK  266  A    between atoms: _884  and  _885
REMARK  267  A    between atoms: _884  and  _887
REMARK  268  A    between atoms: _887  and  _888
REMARK  269  A    between atoms: _895  and  _896
REMARK  270  A    between atoms: _896  and  _897
REMARK  271  A    between atoms: _896  and  _899
REMARK  272  A    between atoms: _899  and  _900
REMARK  273  A    between atoms: _906  and  _907
REMARK  274  A    between atoms: _907  and  _908
REMARK  275  A    between atoms: _913  and  _914
REMARK  276  A    between atoms: _914  and  _915
REMARK  277  A    between atoms: _914  and  _917
REMARK  278  A    between atoms: _917  and  _918
REMARK  279  A    between atoms: _918  and  _919
REMARK  280  A    between atoms: _919  and  _920
REMARK  281  A    between atoms: _920  and  _921
REMARK  282  A    between atoms: _935  and  _936
REMARK  283  A    between atoms: _936  and  _937
REMARK  284  A    between atoms: _936  and  _939
REMARK  285  A    between atoms: _939  and  _940
REMARK  286  A    between atoms: _940  and  _941
REMARK  287  A    between atoms: _950  and  _951
REMARK  288  A    between atoms: _951  and  _952
REMARK  289  A    between atoms: _951  and  _954
REMARK  290  A    between atoms: _954  and  _955
REMARK  291  A    between atoms: _955  and  _956
REMARK  292  A    between atoms: _955  and  _957
REMARK  293  A    between atoms: _969  and  _970
REMARK  294  A    between atoms: _970  and  _971
REMARK  295  A    between atoms: _970  and  _973
REMARK  296  A    between atoms: _973  and  _974
REMARK  297  A    between atoms: _986  and  _987
REMARK  298  A    between atoms: _987  and  _988
REMARK  299  A    between atoms: _987  and  _990
REMARK  300  A    between atoms: _990  and  _991
REMARK  301  A    between atoms: _990  and  _992
REMARK  302  A    between atoms: _991  and  _993
REMARK  303  A    between atoms: _1005  and  _1006
REMARK  304  A    between atoms: _1006  and  _1007
REMARK  305  A    between atoms: _1006  and  _1009
REMARK  306  A    between atoms: _1009  and  _1010
REMARK  307  A    between atoms: _1019  and  _1020
REMARK  308  A    between atoms: _1020  and  _1021
REMARK  309  A    between atoms: _1020  and  _1023
REMARK  310  A    between atoms: _1023  and  _1024
REMARK  311  A    between atoms: _1024  and  _1025
REMARK  312  A    between atoms: _1024  and  _1026
REMARK  313  A    between atoms: _1038  and  _1039
REMARK  314  A    between atoms: _1039  and  _1040
REMARK  315  A    between atoms: _1039  and  _1042
REMARK  316  A    between atoms: _1042  and  _1043
REMARK  317  A    between atoms: _1042  and  _1044
REMARK  318  A    between atoms: _1043  and  _1045
REMARK  319  A    between atoms: _1058  and  _1059
REMARK  320  A    between atoms: _1071  and  _1072
REMARK  321  A    between atoms: _1072  and  _1073
REMARK  322  A    between atoms: _1072  and  _1075
REMARK  323  A    between atoms: _1075  and  _1076
REMARK  324  A    between atoms: _1085  and  _1086
REMARK  325  A    between atoms: _1086  and  _1087
REMARK  326  A    between atoms: _1086  and  _1089
REMARK  327  A    between atoms: _1089  and  _1090
REMARK  328  A    between atoms: _1090  and  _1091
REMARK  329  A    between atoms: _1091  and  _1092
REMARK  330  A    between atoms: _1092  and  _1093
REMARK  331  A    between atoms: _1107  and  _1108
REMARK  332  A    between atoms: _1108  and  _1109
REMARK  333  A    between atoms: _1108  and  _1111
REMARK  334  A    between atoms: _1111  and  _1112
REMARK  335  A    between atoms: _1112  and  _1113
REMARK  336  A    between atoms: _1124  and  _1125
REMARK  337  A    between atoms: _1125  and  _1126
REMARK  338  A    between atoms: _1125  and  _1128
REMARK  339  A    between atoms: _1128  and  _1129
REMARK  340  A    between atoms: _1136  and  _1137
REMARK  341  A    between atoms: _1137  and  _1138
REMARK  342  A    between atoms: _1137  and  _1140
REMARK  343  A    between atoms: _1140  and  _1141
REMARK  344  A    between atoms: _1141  and  _1142
REMARK  345  A    between atoms: _1142  and  _1143
REMARK  346  A    between atoms: _1160  and  _1161
REMARK  347  A    between atoms: _1161  and  _1162
REMARK  348  A    between atoms: _1161  and  _1164
REMARK  349  A    between atoms: _1164  and  _1165
REMARK  350  A    between atoms: _1164  and  _1166
REMARK  351  A    between atoms: _1174  and  _1175
REMARK  352  A    between atoms: _1175  and  _1176
REMARK  353  A    between atoms: _1175  and  _1178
REMARK  354  A    between atoms: _1178  and  _1179
REMARK  355  A    between atoms: _1179  and  _1180
REMARK  356  A    between atoms: _1179  and  _1181
REMARK  357  A    between atoms: _1193  and  _1194
REMARK  358  A    between atoms: _1194  and  _1195
REMARK  359  A    between atoms: _1194  and  _1197
REMARK  360  A    between atoms: _1197  and  _1198
REMARK  361  A    between atoms: _1197  and  _1199
REMARK  362  A    between atoms: _1207  and  _1208
REMARK  363  A    between atoms: _1208  and  _1209
REMARK  364  A    between atoms: _1208  and  _1211
REMARK  365  A    between atoms: _1211  and  _1212
REMARK  366  A    between atoms: _1211  and  _1213
REMARK  367  A    between atoms: _1212  and  _1214
REMARK  368  A    between atoms: _1226  and  _1227
REMARK  369  A    between atoms: _1227  and  _1228
REMARK  370  A    between atoms: _1227  and  _1230
REMARK  371  A    between atoms: _1230  and  _1231
REMARK  372  A    between atoms: _1230  and  _1232
REMARK  373  A    between atoms: _1242  and  _1243
REMARK  374  A    between atoms: _1243  and  _1244
REMARK  375  A    between atoms: _1243  and  _1246
REMARK  376  A    between atoms: _1246  and  _1247
REMARK  377  A    between atoms: _1254  and  _1255
REMARK  378  A    between atoms: _1255  and  _1256
REMARK  379  A    between atoms: _1255  and  _1258
REMARK  380  A    between atoms: _1258  and  _1259
REMARK  381  A    between atoms: _1258  and  _1260
REMARK  382  A    between atoms: _1268  and  _1269
REMARK  383  A    between atoms: _1269  and  _1270
REMARK  384  A    between atoms: _1275  and  _1276
REMARK  385  A    between atoms: _1276  and  _1277
REMARK  386  A    between atoms: _1276  and  _1279
REMARK  387  A    between atoms: _1279  and  _1280
REMARK  388  A    between atoms: _1279  and  _1281
REMARK  389  A    between atoms: _1280  and  _1282
REMARK  390  A    between atoms: _1294  and  _1295
REMARK  391  A    between atoms: _1295  and  _1296
REMARK  392  A    between atoms: _1301  and  _1302
REMARK  393  A    between atoms: _1302  and  _1303
REMARK  394  A    between atoms: _1302  and  _1305
REMARK  395  A    between atoms: _1305  and  _1306
REMARK  396  A    between atoms: _1306  and  _1307
REMARK  397  A    between atoms: _1307  and  _1308
REMARK  398  A    between atoms: _1318  and  _1319
REMARK  399  A    between atoms: _1319  and  _1320
REMARK  400  A    between atoms: _1319  and  _1322
REMARK  401  A    between atoms: _1322  and  _1323
REMARK  402  A    between atoms: _1322  and  _1324
REMARK  403  A    between atoms: _1332  and  _1333
REMARK  404  A    between atoms: _1333  and  _1334
REMARK  405  A    between atoms: _1333  and  _1336
REMARK  406  A    between atoms: _1336  and  _1337
REMARK  407  A    between atoms: _1337  and  _1338
REMARK  408  A    between atoms: _1338  and  _1339
REMARK  409  A    between atoms: _1339  and  _1340
REMARK  410  A    between atoms: _1354  and  _1355
REMARK  411  A    between atoms: _1355  and  _1356
REMARK  412  A    between atoms: _1355  and  _1358
REMARK  413  A    between atoms: _1364  and  _1365
REMARK  414  A    between atoms: _1365  and  _1366
REMARK  415  A    between atoms: _1365  and  _1368
REMARK  416  A    between atoms: _1368  and  _1369
REMARK  417  A    between atoms: _1376  and  _1377
REMARK  418  A    between atoms: _1377  and  _1378
REMARK  419  A    between atoms: _1377  and  _1380
REMARK  420  A    between atoms: _1380  and  _1381
REMARK  421  A    between atoms: _1381  and  _1382
REMARK  422  A    between atoms: _1381  and  _1383
REMARK  423  A    between atoms: _1395  and  _1396
REMARK  424  A    between atoms: _1396  and  _1399
REMARK  425  A    between atoms: _1399  and  _1400
REMARK  426  A    between atoms: _1399  and  _1401
REMARK  427  A    between atoms: _1400  and  _1402
REMARK  428  A    between atoms: _1422  and  _1425
REMARK  429  A    between atoms: _1424  and  _1428
REMARK  430  A    between atoms: _1425  and  _1427
REMARK  431  A    between atoms: _1443  and  _1444
REMARK  432  A    between atoms: _1443  and  _1446
REMARK  433  A    between atoms: _1446  and  _1447
REMARK  434  A    between atoms: _1457  and  _1458
REMARK  435  A    between atoms: _1458  and  _1459
REMARK  436  A    between atoms: _1458  and  _1461
REMARK  437  A    between atoms: _1461  and  _1462
REMARK  438  A    between atoms: _1462  and  _1463
REMARK  439  A    between atoms: _1462  and  _1464
REMARK  440  A    between atoms: _1476  and  _1477
REMARK  441  A    between atoms: _1477  and  _1478
REMARK  442  A    between atoms: _1483  and  _1484
REMARK  443  A    between atoms: _1484  and  _1485
REMARK  444  A    between atoms: _1484  and  _1487
REMARK  445  A    between atoms: _1487  and  _1488
REMARK  446  A    between atoms: _1487  and  _1489
REMARK  447  A    between atoms: _1497  and  _1498
REMARK  448  A    between atoms: _1498  and  _1499
REMARK  449  A    between atoms: _1498  and  _1501
REMARK  450  A    between atoms: _1501  and  _1502
REMARK  451  A    between atoms: _1501  and  _1503
REMARK  452  A    between atoms: _1502  and  _1504
REMARK  453  A    between atoms: _1516  and  _1517
REMARK  454  A    between atoms: _1517  and  _1518
REMARK  455  A    between atoms: _1517  and  _1520
REMARK  456  A    between atoms: _1526  and  _1527
REMARK  457  A    between atoms: _1527  and  _1528
REMARK  458  A    between atoms: _1527  and  _1530
REMARK  459  A    between atoms: _1530  and  _1531
REMARK  460  A    between atoms: _1531  and  _1532
REMARK  461  A    between atoms: _1532  and  _1533
REMARK  462  A    between atoms: _1533  and  _1534
REMARK  463  A    between atoms: _1548  and  _1549
REMARK  464  A    between atoms: _1549  and  _1550
REMARK  465  A    between atoms: _1549  and  _1552
REMARK  466  A    between atoms: _1552  and  _1553
REMARK  467  A    between atoms: _1559  and  _1560
REMARK  468  A    between atoms: _1560  and  _1561
REMARK  469  A    between atoms: _1566  and  _1567
REMARK  470  A    between atoms: _1567  and  _1568
REMARK  471  A    between atoms: _1567  and  _1570
REMARK  472  A    between atoms: _1570  and  _1571
REMARK  473  A    between atoms: _1570  and  _1572
REMARK  474  A    between atoms: _1580  and  _1581
REMARK  475  A    between atoms: _1581  and  _1582
REMARK  476  A    between atoms: _1581  and  _1584
REMARK  477  A    between atoms: _1584  and  _1585
REMARK  478  A    between atoms: _1585  and  _1586
REMARK  479  A    between atoms: _1586  and  _1587
REMARK  480  A    between atoms: _1587  and  _1588
REMARK  481  A    between atoms: _1602  and  _1603
REMARK  482  A    between atoms: _1603  and  _1604
REMARK  483  A    between atoms: _1603  and  _1606
REMARK  484  A    between atoms: _1612  and  _1613
REMARK  485  A    between atoms: _1613  and  _1614
REMARK  486  A    between atoms: _1613  and  _1616
REMARK  487  A    between atoms: _1616  and  _1617
REMARK  488  A    between atoms: _1632  and  _1633
REMARK  489  A    between atoms: _1633  and  _1634
REMARK  490  A    between atoms: _1633  and  _1636
REMARK  491  A    between atoms: _1636  and  _1637
REMARK  492  A    between atoms: _1637  and  _1638
REMARK  493  A    between atoms: _1638  and  _1639
REMARK  494  A    between atoms: _1649  and  _1650
REMARK  495  A    between atoms: _1650  and  _1651
REMARK  496  A    between atoms: _1650  and  _1653
REMARK  497  A    between atoms: _1653  and  _1654
REMARK  498  A    between atoms: _1654  and  _1655
REMARK  499  A    between atoms: _1664  and  _1665
REMARK  500  A    between atoms: _1665  and  _1666
REMARK  501  A    between atoms: _1665  and  _1668
REMARK  502  A    between atoms: _1674  and  _1675
REMARK  503  A    between atoms: _1675  and  _1676
REMARK  504  A    between atoms: _1675  and  _1678
REMARK  505  A    between atoms: _1678  and  _1679
REMARK  506  A    between atoms: _1679  and  _1680
REMARK  507  A    between atoms: _1679  and  _1681
REMARK  508  A    between atoms: _1693  and  _1694
REMARK  509  A    between atoms: _1694  and  _1695
REMARK  510  A    between atoms: _1694  and  _1697
REMARK  511  A    between atoms: _1697  and  _1698
REMARK  512  A    between atoms: _1698  and  _1699
REMARK  513  A    between atoms: _1710  and  _1711
REMARK  514  A    between atoms: _1711  and  _1712
REMARK  515  A    between atoms: _1711  and  _1714
REMARK  516  A    between atoms: _1720  and  _1721
REMARK  517  A    between atoms: _1721  and  _1722
REMARK  518  A    between atoms: _1727  and  _1728
REMARK  519  A    between atoms: _1728  and  _1729
REMARK  520  A    between atoms: _1728  and  _1731
REMARK  521  A    between atoms: _1737  and  _1738
REMARK  522  A    between atoms: _1738  and  _1739
REMARK  523  A    between atoms: _1738  and  _1741
REMARK  524  A    between atoms: _1741  and  _1742
REMARK  525  A    between atoms: _1749  and  _1750
REMARK  526  A    between atoms: _1750  and  _1751
REMARK  527  A    between atoms: _1750  and  _1753
REMARK  528  A    between atoms: _1753  and  _1754
REMARK  529  A    between atoms: _1753  and  _1755
REMARK  530  A    between atoms: _1754  and  _1756
REMARK  531  A    between atoms: _1768  and  _1769
REMARK  532  A    between atoms: _1769  and  _1772
REMARK  533  A    between atoms: _1772  and  _1773
REMARK  534  A    between atoms: _1791  and  _1793
REMARK  535  A    between atoms: _1792  and  _1794
REMARK  536  A    between atoms: _1814  and  _1815
REMARK  537  A    between atoms: _1814  and  _1817
REMARK  538  A    between atoms: _1817  and  _1818
REMARK  539  A    between atoms: _1817  and  _1819
REMARK  540  A    between atoms: _1818  and  _1820
REMARK  541  A    between atoms: _1833  and  _1834
REMARK  542  A    between atoms: _1834  and  _1835
REMARK  543  A    between atoms: _1840  and  _1841
REMARK  544  A    between atoms: _1841  and  _1842
REMARK  545  A    between atoms: _1841  and  _1844
REMARK  546  A    between atoms: _1844  and  _1845
REMARK  547  A    between atoms: _1845  and  _1846
REMARK  548  A    between atoms: _1857  and  _1858
REMARK  549  A    between atoms: _1858  and  _1859
REMARK  550  A    between atoms: _1858  and  _1861
REMARK  551  A    between atoms: _1861  and  _1862
REMARK  552  A    between atoms: _1877  and  _1878
REMARK  553  A    between atoms: _1878  and  _1879
REMARK  554  A    between atoms: _1884  and  _1885
REMARK  555  A    between atoms: _1885  and  _1886
REMARK  556  A    between atoms: _1885  and  _1888
REMARK  557  A    between atoms: _1888  and  _1889
REMARK  558  A    between atoms: _1888  and  _1890
REMARK  559  A    between atoms: _1900  and  _1901
REMARK  560  A    between atoms: _1901  and  _1902
REMARK  561  A    between atoms: _1907  and  _1908
REMARK  562  A    between atoms: _1908  and  _1909
REMARK  563  A    between atoms: _1908  and  _1911
REMARK  564  A    between atoms: _1911  and  _1912
REMARK  565  A    between atoms: _1927  and  _1928
REMARK  566  A    between atoms: _1928  and  _1929
REMARK  567  A    between atoms: _1928  and  _1931
REMARK  568  A    between atoms: _1931  and  _1932
REMARK  569  A    between atoms: _1937  and  _1938
REMARK  570  A    between atoms: _1948  and  _1949
REMARK  571  A    between atoms: _1949  and  _1950
REMARK  572  A    between atoms: _1949  and  _1952
REMARK  573  A    between atoms: _1952  and  _1953
REMARK  574  A    between atoms: _1959  and  _1960
REMARK  575  A    between atoms: _1960  and  _1961
REMARK  576  A    between atoms: _1960  and  _1963
REMARK  577  A    between atoms: _1969  and  _1970
REMARK  578  A    between atoms: _1970  and  _1971
REMARK  579  A    between atoms: _1970  and  _1973
REMARK  580  A    between atoms: _1973  and  _1974
REMARK  581  A    between atoms: _1979  and  _1980
REMARK  582  A    between atoms: _1990  and  _1991
REMARK  583  A    between atoms: _1991  and  _1992
REMARK  584  A    between atoms: _1991  and  _1994
REMARK  585  A    between atoms: _1994  and  _1995
REMARK  586  A    between atoms: _1995  and  _1996
REMARK  587  A    between atoms: _1995  and  _1997
REMARK  588  A    between atoms: _2009  and  _2010
REMARK  589  A    between atoms: _2010  and  _2011
REMARK  590  A    between atoms: _2010  and  _2013
REMARK  591  A    between atoms: _2013  and  _2014
REMARK  592  A    between atoms: _2013  and  _2015
REMARK  593  A    between atoms: _2025  and  _2026
REMARK  594  A    between atoms: _2026  and  _2027
REMARK  595  A    between atoms: _2026  and  _2029
REMARK  596  A    between atoms: _2035  and  _2036
REMARK  597  A    between atoms: _2036  and  _2037
REMARK  598  A    between atoms: _2036  and  _2039
REMARK  599  A    between atoms: _2039  and  _2040
REMARK  600  A    between atoms: _2040  and  _2041
REMARK  601  A    between atoms: _2050  and  _2051
REMARK  602  A    between atoms: _2051  and  _2052
REMARK  603  A    between atoms: _2051  and  _2054
REMARK  604  A    between atoms: _2054  and  _2055
REMARK  605  A    between atoms: _2055  and  _2056
REMARK  606  A    between atoms: _2056  and  _2057
REMARK  607  A    between atoms: _2057  and  _2058
REMARK  608  A    between atoms: _2072  and  _2073
REMARK  609  A    between atoms: _2073  and  _2074
REMARK  610  A    between atoms: _2073  and  _2076
REMARK  611  A    between atoms: _2076  and  _2077
REMARK  612  A    between atoms: _2076  and  _2078
REMARK  613  A    between atoms: _2088  and  _2089
REMARK  614  A    between atoms: _2089  and  _2090
REMARK  615  A    between atoms: _2089  and  _2092
REMARK  616  A    between atoms: _2092  and  _2093
REMARK  617  A    between atoms: _2092  and  _2094
REMARK  618  A    between atoms: _2102  and  _2103
REMARK  619  A    between atoms: _2103  and  _2104
REMARK  620  A    between atoms: _2103  and  _2106
REMARK  621  A    between atoms: _2106  and  _2107
REMARK  622  A    between atoms: _2106  and  _2108
REMARK  623  A    between atoms: _2118  and  _2119
REMARK  624  A    between atoms: _2119  and  _2120
REMARK  625  A    between atoms: _2119  and  _2122
REMARK  626  A    between atoms: _2122  and  _2123
REMARK  627  A    between atoms: _2122  and  _2124
REMARK  628  A    between atoms: _2123  and  _2125
REMARK  629  A    between atoms: _2137  and  _2138
REMARK  630  A    between atoms: _2138  and  _2139
REMARK  631  A    between atoms: _2138  and  _2141
REMARK  632  A    between atoms: _2141  and  _2142
REMARK  633  A    between atoms: _2141  and  _2143
REMARK  634  A    between atoms: _2151  and  _2152
REMARK  635  A    between atoms: _2152  and  _2153
REMARK  636  A    between atoms: _2152  and  _2155
REMARK  637  A    between atoms: _2155  and  _2156
REMARK  638  A    between atoms: _2156  and  _2157
REMARK  639  A    between atoms: _2157  and  _2158
REMARK  640  A    between atoms: _2158  and  _2159
REMARK  641  A    between atoms: _2173  and  _2174
REMARK  642  A    between atoms: _2174  and  _2175
REMARK  643  A    between atoms: _2174  and  _2177
REMARK  644  A    between atoms: _2177  and  _2178
REMARK  645  A    between atoms: _2190  and  _2191
REMARK  646  A    between atoms: _2191  and  _2192
REMARK  647  A    between atoms: _2191  and  _2194
REMARK  648  A    between atoms: _2194  and  _2195
REMARK  649  A    between atoms: _2204  and  _2205
REMARK  650  A    between atoms: _2205  and  _2206
REMARK  651  A    between atoms: _2205  and  _2208
REMARK  652  A    between atoms: _2208  and  _2209
REMARK  653  A    between atoms: _2216  and  _2217
REMARK  654  A    between atoms: _2217  and  _2218
REMARK  655  A    between atoms: _2217  and  _2220
REMARK  656  A    between atoms: _2220  and  _2221
REMARK  657  A    between atoms: _2228  and  _2229
REMARK  658  A    between atoms: _2229  and  _2230
REMARK  659  A    between atoms: _2229  and  _2232
REMARK  660  A    between atoms: _2232  and  _2233
REMARK  661  A    between atoms: _2233  and  _2234
REMARK  662  A    between atoms: _2243  and  _2244
REMARK  663  A    between atoms: _2244  and  _2245
REMARK  664  A    between atoms: _2244  and  _2247
REMARK  665  A    between atoms: _2247  and  _2248
REMARK  666  A    between atoms: _2248  and  _2249
REMARK  667  A    between atoms: _2260  and  _2261
REMARK  668  A    between atoms: _2261  and  _2262
REMARK  669  A    between atoms: _2261  and  _2264
REMARK  670  A    between atoms: _2264  and  _2265
REMARK  671  A    between atoms: _2270  and  _2271
REMARK  672  A    between atoms: _2281  and  _2282
REMARK  673  A    between atoms: _2282  and  _2283
REMARK  674  A    between atoms: _2282  and  _2285
REMARK  675  A    between atoms: _2291  and  _2292
REMARK  676  A    between atoms: _2292  and  _2293
REMARK  677  A    between atoms: _2292  and  _2295
REMARK  678  A    between atoms: _2295  and  _2296
REMARK  679  A    between atoms: _2315  and  _2316
REMARK  680  A    between atoms: _2316  and  _2317
REMARK  681  A    between atoms: _2316  and  _2319
REMARK  682  A    between atoms: _2319  and  _2320
REMARK  683  A    between atoms: _2320  and  _2321
REMARK  684  A    between atoms: _2330  and  _2331
REMARK  685  A    between atoms: _2331  and  _2332
REMARK  686  A    between atoms: _2331  and  _2334
REMARK  687  A    between atoms: _2334  and  _2335
REMARK  688  A    between atoms: _2341  and  _2342
REMARK  689  A    between atoms: _2342  and  _2343
REMARK  690  A    between atoms: _2342  and  _2345
REMARK  691  A    between atoms: _2345  and  _2346
REMARK  692  A    between atoms: _2352  and  _2353
REMARK  693  A    between atoms: _2353  and  _2354
REMARK  694  A    between atoms: _2353  and  _2356
REMARK  695  A    between atoms: _2362  and  _2363
REMARK  696  A    between atoms: _2363  and  _2364
REMARK  697  A    between atoms: _2369  and  _2370
REMARK  698  A    between atoms: _2370  and  _2371
REMARK  699  A    between atoms: _2376  and  _2377
REMARK  700  A    between atoms: _2377  and  _2378
REMARK  701  A    between atoms: _2377  and  _2380
REMARK  702  A    between atoms: _2380  and  _2381
REMARK  703  A    between atoms: _2387  and  _2388
REMARK  704  A    between atoms: _2388  and  _2389
REMARK  705  A    between atoms: _2388  and  _2391
REMARK  706  A    between atoms: _2391  and  _2392
REMARK  707  A    between atoms: _2407  and  _2408
REMARK  708  A    between atoms: _2408  and  _2409
REMARK  709  A    between atoms: _2408  and  _2411
REMARK  710  A    between atoms: _2411  and  _2412
REMARK  711  A    between atoms: _2411  and  _2413
REMARK  712  A    between atoms: _2421  and  _2422
REMARK  713  A    between atoms: _2422  and  _2423
REMARK  714  A    between atoms: _2422  and  _2425
REMARK  715  A    between atoms: _2425  and  _2426
REMARK  716  A    between atoms: _2425  and  _2427
REMARK  717  A    between atoms: _2437  and  _2438
REMARK  718  A    between atoms: _2438  and  _2439
REMARK  719  A    between atoms: _2438  and  _2441
REMARK  720  A    between atoms: _2441  and  _2442
REMARK  721  A    between atoms: _2442  and  _2443
REMARK  722  A    between atoms: _2443  and  _2444
REMARK  723  A    between atoms: _2461  and  _2462
REMARK  724  A    between atoms: _2462  and  _2463
REMARK  725  A    between atoms: _2462  and  _2465
REMARK  726  A    between atoms: _2465  and  _2466
REMARK  727  A    between atoms: _2465  and  _2467
REMARK  728  A    between atoms: _2475  and  _2476
REMARK  729  A    between atoms: _2476  and  _2477
REMARK  730  A    between atoms: _2476  and  _2479
REMARK  731  A    between atoms: _2479  and  _2480
REMARK  732  A    between atoms: _2487  and  _2488
REMARK  733  A    between atoms: _2488  and  _2489
REMARK  734  A    between atoms: _2488  and  _2491
REMARK  735  A    between atoms: _2491  and  _2492
REMARK  736  A    between atoms: _2491  and  _2493
REMARK  737  A    between atoms: _2501  and  _2502
REMARK  738  A    between atoms: _2502  and  _2503
REMARK  739  A    between atoms: _2508  and  _2509
REMARK  740  A    between atoms: _2509  and  _2510
REMARK  741  A    between atoms: _2509  and  _2512
REMARK  742  A    between atoms: _2512  and  _2513
REMARK  743  A    between atoms: _2513  and  _2514
REMARK  744  A    between atoms: _2524  and  _2525
REMARK  745  A    between atoms: _2537  and  _2538
REMARK  746  A    between atoms: _2538  and  _2539
REMARK  747  A    between atoms: _2538  and  _2541
REMARK  748  A    between atoms: _2541  and  _2542
REMARK  749  A    between atoms: _2542  and  _2543
REMARK  750  A    between atoms: _2543  and  _2544
REMARK  751  A    between atoms: _2554  and  _2555
REMARK  752  A    between atoms: _2555  and  _2556
REMARK  753  A    between atoms: _2561  and  _2562
REMARK  754  A    between atoms: _2562  and  _2563
REMARK  755  A    between atoms: _2562  and  _2565
REMARK  756  A    between atoms: _2565  and  _2566
REMARK  757  A    between atoms: _2566  and  _2567
REMARK  758  A    between atoms: _2567  and  _2568
REMARK  759  A    between atoms: _2585  and  _2586
REMARK  760  A    between atoms: _2586  and  _2587
REMARK  761  A    between atoms: _2592  and  _2593
REMARK  762  A    between atoms: _2593  and  _2594
REMARK  763  A    between atoms: _2593  and  _2596
REMARK  764  A    between atoms: _2596  and  _2597
REMARK  765  A    between atoms: _2596  and  _2598
REMARK  766  A    between atoms: _2606  and  _2607
REMARK  767  A    between atoms: _2607  and  _2608
REMARK  768  A    between atoms: _2607  and  _2610
REMARK  769  A    between atoms: _2610  and  _2611
REMARK  770  A    between atoms: _2611  and  _2612
REMARK  771  A    between atoms: _2612  and  _2613
REMARK  772  A    between atoms: _2613  and  _2614
REMARK  773  A    between atoms: _2628  and  _2629
REMARK  774  A    between atoms: _2629  and  _2630
REMARK  775  A    between atoms: _2629  and  _2632
REMARK  776  A    between atoms: _2632  and  _2633
REMARK  777  A    between atoms: _2632  and  _2634
REMARK  778  A    between atoms: _2644  and  _2645
REMARK  779  A    between atoms: _2645  and  _2646
REMARK  780  A    between atoms: _2645  and  _2648
REMARK  781  A    between atoms: _2648  and  _2649
REMARK  782  A    between atoms: _2648  and  _2650
REMARK  783  A    between atoms: _2649  and  _2651
REMARK  784  A    between atoms: _2663  and  _2664
REMARK  785  A    between atoms: _2664  and  _2665
REMARK  786  A    between atoms: _2664  and  _2667
REMARK  787  A    between atoms: _2667  and  _2668
REMARK  788  A    between atoms: _2668  and  _2669
REMARK  789  A    between atoms: _2668  and  _2670
REMARK  790  A    between atoms: _2682  and  _2683
REMARK  791  A    between atoms: _2683  and  _2684
REMARK  792  A    between atoms: _2683  and  _2686
REMARK  793  A    between atoms: _2686  and  _2687
REMARK  794  A    between atoms: _2699  and  _2700
REMARK  795  A    between atoms: _2700  and  _2701
REMARK  796  A    between atoms: _2700  and  _2703
REMARK  797  A    between atoms: _2703  and  _2704
REMARK  798  A    between atoms: _2704  and  _2705
REMARK  799  A    between atoms: _2704  and  _2706
REMARK  800  A    between atoms: _2718  and  _2719
REMARK  801  A    between atoms: _2719  and  _2720
REMARK  802  A    between atoms: _2719  and  _2722
REMARK  803  A    between atoms: _2722  and  _2723
REMARK  804  A    between atoms: _2723  and  _2724
REMARK  805  A    between atoms: _2724  and  _2725
REMARK  806  A    between atoms: _2725  and  _2726
REMARK  807  A    between atoms: _2740  and  _2741
REMARK  808  A    between atoms: _2741  and  _2742
REMARK  809  A    between atoms: _2741  and  _2744
REMARK  810  A    between atoms: _2744  and  _2745
REMARK  811  A    between atoms: _2745  and  _2746
REMARK  812  A    between atoms: _2755  and  _2756
REMARK  813  A    between atoms: _2756  and  _2757
REMARK  814  A    between atoms: _2756  and  _2759
REMARK  815  A    between atoms: _2759  and  _2760
REMARK  816  A    between atoms: _2767  and  _2768
REMARK  817  A    between atoms: _2768  and  _2769
REMARK  818  A    between atoms: _2768  and  _2771
REMARK  819  A    between atoms: _2771  and  _2772
REMARK  820  A    between atoms: _2772  and  _2773
REMARK  821  A    between atoms: _2784  and  _2785
REMARK  822  A    between atoms: _2785  and  _2786
REMARK  823  A    between atoms: _2785  and  _2788
REMARK  824  A    between atoms: _2788  and  _2789
REMARK  825  A    between atoms: _2788  and  _2790
REMARK  826  A    between atoms: _2798  and  _2799
REMARK  827  A    between atoms: _2799  and  _2800
REMARK  828  A    between atoms: _2799  and  _2802
REMARK  829  A    between atoms: _2802  and  _2803
REMARK  830  A    between atoms: _2803  and  _2804
REMARK  831  A    between atoms: _2813  and  _2814
REMARK  832  A    between atoms: _2814  and  _2815
REMARK  833  A    between atoms: _2814  and  _2817
REMARK  834  A    between atoms: _2817  and  _2818
REMARK  835  A    between atoms: _2823  and  _2824
REMARK  836  A    between atoms: _2834  and  _2835
REMARK  837  A    between atoms: _2835  and  _2838
REMARK  838  A    between atoms: _2838  and  _2839
REMARK  839  A    between atoms: _2839  and  _2840
REMARK  840  A    between atoms: _2839  and  _2841
REMARK  841  A    between atoms: _2884  and  _2885
REMARK  842  A    between atoms: _2884  and  _2887
REMARK  843  A    between atoms: _2887  and  _2888
REMARK  844  A    between atoms: _2888  and  _2889
REMARK  845  A    between atoms: _2899  and  _2900
REMARK  846  A    between atoms: _2900  and  _2901
REMARK  847  A    between atoms: _2900  and  _2903
REMARK  848  A    between atoms: _2903  and  _2904
REMARK  849  A    between atoms: _2904  and  _2905
REMARK  850  A    between atoms: _2905  and  _2906
REMARK  851  A    between atoms: _2923  and  _2924
REMARK  852  A    between atoms: _2924  and  _2925
REMARK  853  A    between atoms: _2924  and  _2927
REMARK  854  A    between atoms: _2927  and  _2928
REMARK  855  A    between atoms: _2928  and  _2929
REMARK  856  A    between atoms: _2929  and  _2930
REMARK  857  A    between atoms: _2947  and  _2948
REMARK  858  A    between atoms: _2948  and  _2949
REMARK  859  A    between atoms: _2948  and  _2951
REMARK  860  A    between atoms: _2951  and  _2952
REMARK  861  A    between atoms: _2951  and  _2953
REMARK  862  A    between atoms: _2952  and  _2954
REMARK  863  A    between atoms: _2966  and  _2967
REMARK  864  A    between atoms: _2967  and  _2968
REMARK  865  A    between atoms: _2967  and  _2970
REMARK  866  A    between atoms: _2970  and  _2971
REMARK  867  A    between atoms: _2971  and  _2972
REMARK  868  A    between atoms: _2972  and  _2973
REMARK  869  A    between atoms: _2973  and  _2974
REMARK  870  A    between atoms: _2988  and  _2989
REMARK  871  A    between atoms: _2989  and  _2990
REMARK  872  A    between atoms: _2989  and  _2992
REMARK  873  A    between atoms: _2992  and  _2993
REMARK  874  A    between atoms: _2993  and  _2994
REMARK  875  A    between atoms: _3003  and  _3004
REMARK  876  A    between atoms: _3004  and  _3005
REMARK  877  A    between atoms: _3004  and  _3007
REMARK  878  A    between atoms: _3007  and  _3008
REMARK  879  A    between atoms: _3007  and  _3009
REMARK  880  A    between atoms: _3008  and  _3010
REMARK  881  A    between atoms: _3022  and  _3023
REMARK  882  A    between atoms: _3023  and  _3024
REMARK  883  A    between atoms: _3023  and  _3026
REMARK  884  A    between atoms: _3026  and  _3027
REMARK  885  A    between atoms: _3026  and  _3028
REMARK  886  A    between atoms: _3038  and  _3039
REMARK  887  A    between atoms: _3039  and  _3040
REMARK  888  A    between atoms: _3039  and  _3042
REMARK  889  A    between atoms: _3042  and  _3043
REMARK  890  A    between atoms: _3043  and  _3044
REMARK  891  A    between atoms: _3044  and  _3045
REMARK  892  A    between atoms: _3045  and  _3046
REMARK  893  A    between atoms: _3060  and  _3061
REMARK  894  A    between atoms: _3061  and  _3062
REMARK  895  A    between atoms: _3061  and  _3064
REMARK  896  A    between atoms: _3064  and  _3065
REMARK  897  A    between atoms: _3065  and  _3066
REMARK  898  A    between atoms: _3066  and  _3067
REMARK  899  A    between atoms: _3067  and  _3068
REMARK  900  A    between atoms: _3082  and  _3083
REMARK  901  A    between atoms: _3083  and  _3084
REMARK  902  A    between atoms: _3083  and  _3086
REMARK  903  A    between atoms: _3086  and  _3087
REMARK  904  A    between atoms: _3099  and  _3100
REMARK  905  A    between atoms: _3100  and  _3101
REMARK  906  A    between atoms: _3100  and  _3103
REMARK  907  A    between atoms: _3103  and  _3104
REMARK  908  A    between atoms: _3110  and  _3111
REMARK  909  A    between atoms: _3111  and  _3112
REMARK  910  A    between atoms: _3111  and  _3114
REMARK  911  A    between atoms: _3114  and  _3115
REMARK  912  A    between atoms: _3115  and  _3116
REMARK  913  A    between atoms: _3127  and  _3128
REMARK  914  A    between atoms: _3128  and  _3129
REMARK  915  A    between atoms: _3128  and  _3131
REMARK  916  A    between atoms: _3131  and  _3132
REMARK  917  A    between atoms: _3147  and  _3148
REMARK  918  A    between atoms: _3148  and  _3149
REMARK  919  A    between atoms: _3148  and  _3151
REMARK  920  A    between atoms: _3151  and  _3152
REMARK  921  A    between atoms: _3151  and  _3153
REMARK  922  A    between atoms: _3152  and  _3154
REMARK  923  A    between atoms: _3166  and  _3167
REMARK  924  A    between atoms: _3167  and  _3168
REMARK  925  A    between atoms: _3173  and  _3174
REMARK  926  A    between atoms: _3174  and  _3175
REMARK  927  A    between atoms: _3174  and  _3177
REMARK  928  A    between atoms: _3177  and  _3178
REMARK  929  A    between atoms: _3183  and  _3184
REMARK  930  A    between atoms: _3195  and  _3196
REMARK  931  A    between atoms: _3208  and  _3209
REMARK  932  A    between atoms: _3209  and  _3210
REMARK  933  A    between atoms: _3209  and  _3212
REMARK  934  A    between atoms: _3212  and  _3213
REMARK  935  A    between atoms: _3212  and  _3214
REMARK  936  A    between atoms: _3213  and  _3215
REMARK  937  A    between atoms: _3227  and  _3228
REMARK  938  A    between atoms: _3228  and  _3229
REMARK  939  A    between atoms: _3228  and  _3231
REMARK  940  A    between atoms: _3231  and  _3232
REMARK  941  A    between atoms: _3231  and  _3233
REMARK  942  A    between atoms: _3241  and  _3242
REMARK  943  A    between atoms: _3242  and  _3243
REMARK  944  A    between atoms: _3242  and  _3245
REMARK  945  A    between atoms: _3245  and  _3246
REMARK  946  A    between atoms: _3246  and  _3247
REMARK  947  A    between atoms: _3246  and  _3248
REMARK  948  A    between atoms: _3260  and  _3261
REMARK  949  A    between atoms: _3261  and  _3262
REMARK  950  A    between atoms: _3261  and  _3264
REMARK  951  A    between atoms: _3264  and  _3265
REMARK  952  A    between atoms: _3280  and  _3281
REMARK  953  A    between atoms: _3281  and  _3282
REMARK  954  A    between atoms: _3281  and  _3284
REMARK  955  A    between atoms: _3284  and  _3285
REMARK  956  A    between atoms: _3284  and  _3286
REMARK  957  A    between atoms: _3296  and  _3297
REMARK  958  A    between atoms: _3297  and  _3298
REMARK  959  A    between atoms: _3297  and  _3300
REMARK  960  A    between atoms: _3300  and  _3301
REMARK  961  A    between atoms: _3301  and  _3302
REMARK                            x       y       z     vdW  Elec       q    Type
REMARK                         _______ _______ _______ _____ _____    ______ ____
ROOT
ATOM      1  C   UNL     1       6.937  39.087  40.675  0.00  0.00    +0.000 C 
ENDROOT
TORSDOF 0
REMARK  Name = /Users/mlugowska/PhD/ML_residence_time_prediction/protein_files/5J20_protein.pdb
REMARK  961 active torsions:
REMARK  status: ('A' for Active; 'I' for Inactive)
REMARK    1  A    between atoms: _2  and  _3
REMARK    2  A    between atoms: _2  and  _5
REMARK    3  A    between atoms: _10  and  _11
REMARK    4  A    between atoms: _11  and  _12
REMARK    5  A    between atoms: _11  and  _14
REMARK    6  A    between atoms: _14  and  _15
REMARK    7  A    between atoms: _14  and  _16
REMARK    8  A    between atoms: _26  and  _27
REMARK    9  A    between atoms: _27  and  _28
REMARK   10  A    between atoms: _27  and  _30
REMARK   11  A    between atoms: _30  and  _31
REMARK   12  A    between atoms: _31  and  _32
REMARK   13  A    between atoms: _41  and  _42
REMARK   14  A    between atoms: _42  and  _43
REMARK   15  A    between atoms: _42  and  _45
REMARK   16  A    between atoms: _45  and  _46
REMARK   17  A    between atoms: _45  and  _47
REMARK   18  A    between atoms: _55  and  _56
REMARK   19  A    between atoms: _56  and  _57
REMARK   20  A    between atoms: _56  and  _59
REMARK   21  A    between atoms: _59  and  _60
REMARK   22  A    between atoms: _75  and  _76
REMARK   23  A    between atoms: _76  and  _77
REMARK   24  A    between atoms: _76  and  _79
REMARK   25  A    between atoms: _85  and  _86
REMARK   26  A    between atoms: _86  and  _87
REMARK   27  A    between atoms: _86  and  _89
REMARK   28  A    between atoms: _89  and  _90
REMARK   29  A    between atoms: _105  and  _106
REMARK   30  A    between atoms: _106  and  _107
REMARK   31  A    between atoms: _106  and  _109
REMARK   32  A    between atoms: _109  and  _110
REMARK   33  A    between atoms: _110  and  _111
REMARK   34  A    between atoms: _122  and  _123
REMARK   35  A    between atoms: _123  and  _124
REMARK   36  A    between atoms: _123  and  _126
REMARK   37  A    between atoms: _132  and  _133
REMARK   38  A    between atoms: _133  and  _134
REMARK   39  A    between atoms: _133  and  _136
REMARK   40  A    between atoms: _136  and  _137
REMARK   41  A    between atoms: _137  and  _138
REMARK   42  A    between atoms: _147  and  _148
REMARK   43  A    between atoms: _148  and  _149
REMARK   44  A    between atoms: _148  and  _151
REMARK   45  A    between atoms: _151  and  _152
REMARK   46  A    between atoms: _151  and  _153
REMARK   47  A    between atoms: _152  and  _154
REMARK   48  A    between atoms: _166  and  _167
REMARK   49  A    between atoms: _167  and  _168
REMARK   50  A    between atoms: _167  and  _170
REMARK   51  A    between atoms: _176  and  _177
REMARK   52  A    between atoms: _177  and  _178
REMARK   53  A    between atoms: _177  and  _180
REMARK   54  A    between atoms: _180  and  _181
REMARK   55  A    between atoms: _181  and  _182
REMARK   56  A    between atoms: _193  and  _194
REMARK   57  A    between atoms: _194  and  _195
REMARK   58  A    between atoms: _194  and  _197
REMARK   59  A    between atoms: _197  and  _198
REMARK   60  A    between atoms: _198  and  _199
REMARK   61  A    between atoms: _198  and  _200
REMARK   62  A    between atoms: _212  and  _213
REMARK   63  A    between atoms: _213  and  _214
REMARK   64  A    between atoms: _213  and  _216
REMARK   65  A    between atoms: _216  and  _217
REMARK   66  A    between atoms: _217  and  _218
REMARK   67  A    between atoms: _218  and  _219
REMARK   68  A    between atoms: _229  and  _230
REMARK   69  A    between atoms: _230  and  _231
REMARK   70  A    between atoms: _230  and  _233
REMARK   71  A    between atoms: _233  and  _234
REMARK   72  A    between atoms: _240  and  _241
REMARK   73  A    between atoms: _241  and  _242
REMARK   74  A    between atoms: _241  and  _244
REMARK   75  A    between atoms: _244  and  _245
REMARK   76  A    between atoms: _245  and  _246
REMARK   77  A    between atoms: _245  and  _247
REMARK   78  A    between atoms: _259  and  _260
REMARK   79  A    between atoms: _260  and  _261
REMARK   80  A    between atoms: _260  and  _263
REMARK   81  A    between atoms: _263  and  _264
REMARK   82  A    between atoms: _263  and  _265
REMARK   83  A    between atoms: _264  and  _266
REMARK   84  A    between atoms: _278  and  _279
REMARK   85  A    between atoms: _279  and  _280
REMARK   86  A    between atoms: _279  and  _282
REMARK   87  A    between atoms: _282  and  _283
REMARK   88  A    between atoms: _282  and  _284
REMARK   89  A    between atoms: _283  and  _285
REMARK   90  A    between atoms: _297  and  _298
REMARK   91  A    between atoms: _298  and  _299
REMARK   92  A    between atoms: _298  and  _301
REMARK   93  A    between atoms: _301  and  _302
REMARK   94  A    between atoms: _311  and  _312
REMARK   95  A    between atoms: _312  and  _313
REMARK   96  A    between atoms: _312  and  _315
REMARK   97  A    between atoms: _315  and  _316
REMARK   98  A    between atoms: _315  and  _317
REMARK   99  A    between atoms: _325  and  _326
REMARK  100  A    between atoms: _326  and  _327
REMARK  101  A    between atoms: _326  and  _329
REMARK  102  A    between atoms: _329  and  _330
REMARK  103  A    between atoms: _345  and  _346
REMARK  104  A    between atoms: _346  and  _347
REMARK  105  A    between atoms: _346  and  _349
REMARK  106  A    between atoms: _349  and  _350
REMARK  107  A    between atoms: _355  and  _356
REMARK  108  A    between atoms: _366  and  _367
REMARK  109  A    between atoms: _367  and  _368
REMARK  110  A    between atoms: _367  and  _370
REMARK  111  A    between atoms: _370  and  _371
REMARK  112  A    between atoms: _377  and  _378
REMARK  113  A    between atoms: _378  and  _379
REMARK  114  A    between atoms: _378  and  _381
REMARK  115  A    between atoms: _381  and  _382
REMARK  116  A    between atoms: _391  and  _392
REMARK  117  A    between atoms: _392  and  _393
REMARK  118  A    between atoms: _392  and  _395
REMARK  119  A    between atoms: _395  and  _396
REMARK  120  A    between atoms: _396  and  _397
REMARK  121  A    between atoms: _397  and  _398
REMARK  122  A    between atoms: _398  and  _399
REMARK  123  A    between atoms: _413  and  _414
REMARK  124  A    between atoms: _414  and  _415
REMARK  125  A    between atoms: _414  and  _417
REMARK  126  A    between atoms: _417  and  _418
REMARK  127  A    between atoms: _418  and  _419
REMARK  128  A    between atoms: _428  and  _429
REMARK  129  A    between atoms: _429  and  _430
REMARK  130  A    between atoms: _429  and  _432
REMARK  131  A    between atoms: _432  and  _433
REMARK  132  A    between atoms: _432  and  _434
REMARK  133  A    between atoms: _433  and  _435
REMARK  134  A    between atoms: _447  and  _448
REMARK  135  A    between atoms: _448  and  _449
REMARK  136  A    between atoms: _448  and  _451
REMARK  137  A    between atoms: _451  and  _452
REMARK  138  A    between atoms: _467  and  _468
REMARK  139  A    between atoms: _468  and  _469
REMARK  140  A    between atoms: _468  and  _471
REMARK  141  A    between atoms: _471  and  _472
REMARK  142  A    between atoms: _472  and  _473
REMARK  143  A    between atoms: _472  and  _474
REMARK  144  A    between atoms: _486  and  _487
REMARK  145  A    between atoms: _487  and  _488
REMARK  146  A    between atoms: _487  and  _490
REMARK  147  A    between atoms: _490  and  _491
REMARK  148  A    between atoms: _491  and  _492
REMARK  149  A    between atoms: _492  and  _493
REMARK  150  A    between atoms: _510  and  _511
REMARK  151  A    between atoms: _511  and  _512
REMARK  152  A    between atoms: _511  and  _514
REMARK  153  A    between atoms: _514  and  _515
REMARK  154  A    between atoms: _515  and  _516
REMARK  155  A    between atoms: _525  and  _526
REMARK  156  A    between atoms: _526  and  _527
REMARK  157  A    between atoms: _526  and  _529
REMARK  158  A    between atoms: _529  and  _530
REMARK  159  A    between atoms: _530  and  _531
REMARK  160  A    between atoms: _530  and  _532
REMARK  161  A    between atoms: _544  and  _545
REMARK  162  A    between atoms: _545  and  _546
REMARK  163  A    between atoms: _545  and  _548
REMARK  164  A    between atoms: _548  and  _549
REMARK  165  A    between atoms: _548  and  _550
REMARK  166  A    between atoms: _549  and  _551
REMARK  167  A    between atoms: _563  and  _564
REMARK  168  A    between atoms: _564  and  _565
REMARK  169  A    between atoms: _564  and  _567
REMARK  170  A    between atoms: _567  and  _568
REMARK  171  A    between atoms: _574  and  _575
REMARK  172  A    between atoms: _575  and  _576
REMARK  173  A    between atoms: _575  and  _578
REMARK  174  A    between atoms: _578  and  _579
REMARK  175  A    between atoms: _588  and  _589
REMARK  176  A    between atoms: _589  and  _590
REMARK  177  A    between atoms: _589  and  _592
REMARK  178  A    between atoms: _592  and  _593
REMARK  179  A    between atoms: _599  and  _600
REMARK  180  A    between atoms: _600  and  _601
REMARK  181  A    between atoms: _600  and  _603
REMARK  182  A    between atoms: _603  and  _604
REMARK  183  A    between atoms: _610  and  _611
REMARK  184  A    between atoms: _611  and  _612
REMARK  185  A    between atoms: _611  and  _614
REMARK  186  A    between atoms: _614  and  _615
REMARK  187  A    between atoms: _622  and  _623
REMARK  188  A    between atoms: _623  and  _624
REMARK  189  A    between atoms: _623  and  _626
REMARK  190  A    between atoms: _632  and  _633
REMARK  191  A    between atoms: _633  and  _634
REMARK  192  A    between atoms: _633  and  _636
REMARK  193  A    between atoms: _636  and  _637
REMARK  194  A    between atoms: _637  and  _638
REMARK  195  A    between atoms: _637  and  _639
REMARK  196  A    between atoms: _651  and  _652
REMARK  197  A    between atoms: _652  and  _653
REMARK  198  A    between atoms: _652  and  _655
REMARK  199  A    between atoms: _655  and  _656
REMARK  200  A    between atoms: _663  and  _664
REMARK  201  A    between atoms: _664  and  _665
REMARK  202  A    between atoms: _664  and  _667
REMARK  203  A    between atoms: _667  and  _668
REMARK  204  A    between atoms: _668  and  _669
REMARK  205  A    between atoms: _669  and  _670
REMARK  206  A    between atoms: _670  and  _671
REMARK  207  A    between atoms: _685  and  _686
REMARK  208  A    between atoms: _686  and  _687
REMARK  209  A    between atoms: _686  and  _689
REMARK  210  A    between atoms: _689  and  _690
REMARK  211  A    between atoms: _689  and  _691
REMARK  212  A    between atoms: _690  and  _692
REMARK  213  A    between atoms: _704  and  _705
REMARK  214  A    between atoms: _705  and  _706
REMARK  215  A    between atoms: _705  and  _708
REMARK  216  A    between atoms: _708  and  _709
REMARK  217  A    between atoms: _709  and  _710
REMARK  218  A    between atoms: _710  and  _711
REMARK  219  A    between atoms: _728  and  _729
REMARK  220  A    between atoms: _729  and  _730
REMARK  221  A    between atoms: _729  and  _732
REMARK  222  A    between atoms: _732  and  _733
REMARK  223  A    between atoms: _738  and  _739
REMARK  224  A    between atoms: _749  and  _750
REMARK  225  A    between atoms: _750  and  _751
REMARK  226  A    between atoms: _750  and  _753
REMARK  227  A    between atoms: _753  and  _754
REMARK  228  A    between atoms: _754  and  _755
REMARK  229  A    between atoms: _764  and  _765
REMARK  230  A    between atoms: _765  and  _766
REMARK  231  A    between atoms: _765  and  _768
REMARK  232  A    between atoms: _772  and  _773
REMARK  233  A    between atoms: _773  and  _774
REMARK  234  A    between atoms: _773  and  _776
REMARK  235  A    between atoms: _776  and  _777
REMARK  236  A    between atoms: _777  and  _778
REMARK  237  A    between atoms: _777  and  _779
REMARK  238  A    between atoms: _791  and  _792
REMARK  239  A    between atoms: _792  and  _793
REMARK  240  A    between atoms: _792  and  _795
REMARK  241  A    between atoms: _795  and  _796
REMARK  242  A    between atoms: _795  and  _797
REMARK  243  A    between atoms: _805  and  _806
REMARK  244  A    between atoms: _806  and  _807
REMARK  245  A    between atoms: _806  and  _809
REMARK  246  A    between atoms: _809  and  _810
REMARK  247  A    between atoms: _818  and  _819
REMARK  248  A    between atoms: _831  and  _832
REMARK  249  A    between atoms: _832  and  _833
REMARK  250  A    between atoms: _832  and  _835
REMARK  251  A    between atoms: _835  and  _836
REMARK  252  A    between atoms: _842  and  _843
REMARK  253  A    between atoms: _843  and  _844
REMARK  254  A    between atoms: _843  and  _846
REMARK  255  A    between atoms: _846  and  _847
REMARK  256  A    between atoms: _847  and  _848
REMARK  257  A    between atoms: _848  and  _849
REMARK  258  A    between atoms: _849  and  _850
REMARK  259  A    between atoms: _864  and  _865
REMARK  260  A    between atoms: _865  and  _866
REMARK  261  A    between atoms: _865  and  _868
REMARK  262  A    between atoms: _868  and  _869
REMARK  263  A    between atoms: _869  and  _870
REMARK  264  A    between atoms: _869  and  _871
REMARK  265  A    between atoms: _883  and  _884
REMARK  266  A    between atoms: _884  and  _885
REMARK  267  A    between atoms: _884  and  _887
REMARK  268  A    between atoms: _887  and  _888
REMARK  269  A    between atoms: _895  and  _896
REMARK  270  A    between atoms: _896  and  _897
REMARK  271  A    between atoms: _896  and  _899
REMARK  272  A    between atoms: _899  and  _900
REMARK  273  A    between atoms: _906  and  _907
REMARK  274  A    between atoms: _907  and  _908
REMARK  275  A    between atoms: _913  and  _914
REMARK  276  A    between atoms: _914  and  _915
REMARK  277  A    between atoms: _914  and  _917
REMARK  278  A    between atoms: _917  and  _918
REMARK  279  A    between atoms: _918  and  _919
REMARK  280  A    between atoms: _919  and  _920
REMARK  281  A    between atoms: _920  and  _921
REMARK  282  A    between atoms: _935  and  _936
REMARK  283  A    between atoms: _936  and  _937
REMARK  284  A    between atoms: _936  and  _939
REMARK  285  A    between atoms: _939  and  _940
REMARK  286  A    between atoms: _940  and  _941
REMARK  287  A    between atoms: _950  and  _951
REMARK  288  A    between atoms: _951  and  _952
REMARK  289  A    between atoms: _951  and  _954
REMARK  290  A    between atoms: _954  and  _955
REMARK  291  A    between atoms: _955  and  _956
REMARK  292  A    between atoms: _955  and  _957
REMARK  293  A    between atoms: _969  and  _970
REMARK  294  A    between atoms: _970  and  _971
REMARK  295  A    between atoms: _970  and  _973
REMARK  296  A    between atoms: _973  and  _974
REMARK  297  A    between atoms: _986  and  _987
REMARK  298  A    between atoms: _987  and  _988
REMARK  299  A    between atoms: _987  and  _990
REMARK  300  A    between atoms: _990  and  _991
REMARK  301  A    between atoms: _990  and  _992
REMARK  302  A    between atoms: _991  and  _993
REMARK  303  A    between atoms: _1005  and  _1006
REMARK  304  A    between atoms: _1006  and  _1007
REMARK  305  A    between atoms: _1006  and  _1009
REMARK  306  A    between atoms: _1009  and  _1010
REMARK  307  A    between atoms: _1019  and  _1020
REMARK  308  A    between atoms: _1020  and  _1021
REMARK  309  A    between atoms: _1020  and  _1023
REMARK  310  A    between atoms: _1023  and  _1024
REMARK  311  A    between atoms: _1024  and  _1025
REMARK  312  A    between atoms: _1024  and  _1026
REMARK  313  A    between atoms: _1038  and  _1039
REMARK  314  A    between atoms: _1039  and  _1040
REMARK  315  A    between atoms: _1039  and  _1042
REMARK  316  A    between atoms: _1042  and  _1043
REMARK  317  A    between atoms: _1042  and  _1044
REMARK  318  A    between atoms: _1043  and  _1045
REMARK  319  A    between atoms: _1058  and  _1059
REMARK  320  A    between atoms: _1071  and  _1072
REMARK  321  A    between atoms: _1072  and  _1073
REMARK  322  A    between atoms: _1072  and  _1075
REMARK  323  A    between atoms: _1075  and  _1076
REMARK  324  A    between atoms: _1085  and  _1086
REMARK  325  A    between atoms: _1086  and  _1087
REMARK  326  A    between atoms: _1086  and  _1089
REMARK  327  A    between atoms: _1089  and  _1090
REMARK  328  A    between atoms: _1090  and  _1091
REMARK  329  A    between atoms: _1091  and  _1092
REMARK  330  A    between atoms: _1092  and  _1093
REMARK  331  A    between atoms: _1107  and  _1108
REMARK  332  A    between atoms: _1108  and  _1109
REMARK  333  A    between atoms: _1108  and  _1111
REMARK  334  A    between atoms: _1111  and  _1112
REMARK  335  A    between atoms: _1112  and  _1113
REMARK  336  A    between atoms: _1124  and  _1125
REMARK  337  A    between atoms: _1125  and  _1126
REMARK  338  A    between atoms: _1125  and  _1128
REMARK  339  A    between atoms: _1128  and  _1129
REMARK  340  A    between atoms: _1136  and  _1137
REMARK  341  A    between atoms: _1137  and  _1138
REMARK  342  A    between atoms: _1137  and  _1140
REMARK  343  A    between atoms: _1140  and  _1141
REMARK  344  A    between atoms: _1141  and  _1142
REMARK  345  A    between atoms: _1142  and  _1143
REMARK  346  A    between atoms: _1160  and  _1161
REMARK  347  A    between atoms: _1161  and  _1162
REMARK  348  A    between atoms: _1161  and  _1164
REMARK  349  A    between atoms: _1164  and  _1165
REMARK  350  A    between atoms: _1164  and  _1166
REMARK  351  A    between atoms: _1174  and  _1175
REMARK  352  A    between atoms: _1175  and  _1176
REMARK  353  A    between atoms: _1175  and  _1178
REMARK  354  A    between atoms: _1178  and  _1179
REMARK  355  A    between atoms: _1179  and  _1180
REMARK  356  A    between atoms: _1179  and  _1181
REMARK  357  A    between atoms: _1193  and  _1194
REMARK  358  A    between atoms: _1194  and  _1195
REMARK  359  A    between atoms: _1194  and  _1197
REMARK  360  A    between atoms: _1197  and  _1198
REMARK  361  A    between atoms: _1197  and  _1199
REMARK  362  A    between atoms: _1207  and  _1208
REMARK  363  A    between atoms: _1208  and  _1209
REMARK  364  A    between atoms: _1208  and  _1211
REMARK  365  A    between atoms: _1211  and  _1212
REMARK  366  A    between atoms: _1211  and  _1213
REMARK  367  A    between atoms: _1212  and  _1214
REMARK  368  A    between atoms: _1226  and  _1227
REMARK  369  A    between atoms: _1227  and  _1228
REMARK  370  A    between atoms: _1227  and  _1230
REMARK  371  A    between atoms: _1230  and  _1231
REMARK  372  A    between atoms: _1230  and  _1232
REMARK  373  A    between atoms: _1242  and  _1243
REMARK  374  A    between atoms: _1243  and  _1244
REMARK  375  A    between atoms: _1243  and  _1246
REMARK  376  A    between atoms: _1246  and  _1247
REMARK  377  A    between atoms: _1254  and  _1255
REMARK  378  A    between atoms: _1255  and  _1256
REMARK  379  A    between atoms: _1255  and  _1258
REMARK  380  A    between atoms: _1258  and  _1259
REMARK  381  A    between atoms: _1258  and  _1260
REMARK  382  A    between atoms: _1268  and  _1269
REMARK  383  A    between atoms: _1269  and  _1270
REMARK  384  A    between atoms: _1275  and  _1276
REMARK  385  A    between atoms: _1276  and  _1277
REMARK  386  A    between atoms: _1276  and  _1279
REMARK  387  A    between atoms: _1279  and  _1280
REMARK  388  A    between atoms: _1279  and  _1281
REMARK  389  A    between atoms: _1280  and  _1282
REMARK  390  A    between atoms: _1294  and  _1295
REMARK  391  A    between atoms: _1295  and  _1296
REMARK  392  A    between atoms: _1301  and  _1302
REMARK  393  A    between atoms: _1302  and  _1303
REMARK  394  A    between atoms: _1302  and  _1305
REMARK  395  A    between atoms: _1305  and  _1306
REMARK  396  A    between atoms: _1306  and  _1307
REMARK  397  A    between atoms: _1307  and  _1308
REMARK  398  A    between atoms: _1318  and  _1319
REMARK  399  A    between atoms: _1319  and  _1320
REMARK  400  A    between atoms: _1319  and  _1322
REMARK  401  A    between atoms: _1322  and  _1323
REMARK  402  A    between atoms: _1322  and  _1324
REMARK  403  A    between atoms: _1332  and  _1333
REMARK  404  A    between atoms: _1333  and  _1334
REMARK  405  A    between atoms: _1333  and  _1336
REMARK  406  A    between atoms: _1336  and  _1337
REMARK  407  A    between atoms: _1337  and  _1338
REMARK  408  A    between atoms: _1338  and  _1339
REMARK  409  A    between atoms: _1339  and  _1340
REMARK  410  A    between atoms: _1354  and  _1355
REMARK  411  A    between atoms: _1355  and  _1356
REMARK  412  A    between atoms: _1355  and  _1358
REMARK  413  A    between atoms: _1364  and  _1365
REMARK  414  A    between atoms: _1365  and  _1366
REMARK  415  A    between atoms: _1365  and  _1368
REMARK  416  A    between atoms: _1368  and  _1369
REMARK  417  A    between atoms: _1376  and  _1377
REMARK  418  A    between atoms: _1377  and  _1378
REMARK  419  A    between atoms: _1377  and  _1380
REMARK  420  A    between atoms: _1380  and  _1381
REMARK  421  A    between atoms: _1381  and  _1382
REMARK  422  A    between atoms: _1381  and  _1383
REMARK  423  A    between atoms: _1395  and  _1396
REMARK  424  A    between atoms: _1396  and  _1399
REMARK  425  A    between atoms: _1399  and  _1400
REMARK  426  A    between atoms: _1399  and  _1401
REMARK  427  A    between atoms: _1400  and  _1402
REMARK  428  A    between atoms: _1422  and  _1425
REMARK  429  A    between atoms: _1424  and  _1428
REMARK  430  A    between atoms: _1425  and  _1427
REMARK  431  A    between atoms: _1443  and  _1444
REMARK  432  A    between atoms: _1443  and  _1446
REMARK  433  A    between atoms: _1446  and  _1447
REMARK  434  A    between atoms: _1457  and  _1458
REMARK  435  A    between atoms: _1458  and  _1459
REMARK  436  A    between atoms: _1458  and  _1461
REMARK  437  A    between atoms: _1461  and  _1462
REMARK  438  A    between atoms: _1462  and  _1463
REMARK  439  A    between atoms: _1462  and  _1464
REMARK  440  A    between atoms: _1476  and  _1477
REMARK  441  A    between atoms: _1477  and  _1478
REMARK  442  A    between atoms: _1483  and  _1484
REMARK  443  A    between atoms: _1484  and  _1485
REMARK  444  A    between atoms: _1484  and  _1487
REMARK  445  A    between atoms: _1487  and  _1488
REMARK  446  A    between atoms: _1487  and  _1489
REMARK  447  A    between atoms: _1497  and  _1498
REMARK  448  A    between atoms: _1498  and  _1499
REMARK  449  A    between atoms: _1498  and  _1501
REMARK  450  A    between atoms: _1501  and  _1502
REMARK  451  A    between atoms: _1501  and  _1503
REMARK  452  A    between atoms: _1502  and  _1504
REMARK  453  A    between atoms: _1516  and  _1517
REMARK  454  A    between atoms: _1517  and  _1518
REMARK  455  A    between atoms: _1517  and  _1520
REMARK  456  A    between atoms: _1526  and  _1527
REMARK  457  A    between atoms: _1527  and  _1528
REMARK  458  A    between atoms: _1527  and  _1530
REMARK  459  A    between atoms: _1530  and  _1531
REMARK  460  A    between atoms: _1531  and  _1532
REMARK  461  A    between atoms: _1532  and  _1533
REMARK  462  A    between atoms: _1533  and  _1534
REMARK  463  A    between atoms: _1548  and  _1549
REMARK  464  A    between atoms: _1549  and  _1550
REMARK  465  A    between atoms: _1549  and  _1552
REMARK  466  A    between atoms: _1552  and  _1553
REMARK  467  A    between atoms: _1559  and  _1560
REMARK  468  A    between atoms: _1560  and  _1561
REMARK  469  A    between atoms: _1566  and  _1567
REMARK  470  A    between atoms: _1567  and  _1568
REMARK  471  A    between atoms: _1567  and  _1570
REMARK  472  A    between atoms: _1570  and  _1571
REMARK  473  A    between atoms: _1570  and  _1572
REMARK  474  A    between atoms: _1580  and  _1581
REMARK  475  A    between atoms: _1581  and  _1582
REMARK  476  A    between atoms: _1581  and  _1584
REMARK  477  A    between atoms: _1584  and  _1585
REMARK  478  A    between atoms: _1585  and  _1586
REMARK  479  A    between atoms: _1586  and  _1587
REMARK  480  A    between atoms: _1587  and  _1588
REMARK  481  A    between atoms: _1602  and  _1603
REMARK  482  A    between atoms: _1603  and  _1604
REMARK  483  A    between atoms: _1603  and  _1606
REMARK  484  A    between atoms: _1612  and  _1613
REMARK  485  A    between atoms: _1613  and  _1614
REMARK  486  A    between atoms: _1613  and  _1616
REMARK  487  A    between atoms: _1616  and  _1617
REMARK  488  A    between atoms: _1632  and  _1633
REMARK  489  A    between atoms: _1633  and  _1634
REMARK  490  A    between atoms: _1633  and  _1636
REMARK  491  A    between atoms: _1636  and  _1637
REMARK  492  A    between atoms: _1637  and  _1638
REMARK  493  A    between atoms: _1638  and  _1639
REMARK  494  A    between atoms: _1649  and  _1650
REMARK  495  A    between atoms: _1650  and  _1651
REMARK  496  A    between atoms: _1650  and  _1653
REMARK  497  A    between atoms: _1653  and  _1654
REMARK  498  A    between atoms: _1654  and  _1655
REMARK  499  A    between atoms: _1664  and  _1665
REMARK  500  A    between atoms: _1665  and  _1666
REMARK  501  A    between atoms: _1665  and  _1668
REMARK  502  A    between atoms: _1674  and  _1675
REMARK  503  A    between atoms: _1675  and  _1676
REMARK  504  A    between atoms: _1675  and  _1678
REMARK  505  A    between atoms: _1678  and  _1679
REMARK  506  A    between atoms: _1679  and  _1680
REMARK  507  A    between atoms: _1679  and  _1681
REMARK  508  A    between atoms: _1693  and  _1694
REMARK  509  A    between atoms: _1694  and  _1695
REMARK  510  A    between atoms: _1694  and  _1697
REMARK  511  A    between atoms: _1697  and  _1698
REMARK  512  A    between atoms: _1698  and  _1699
REMARK  513  A    between atoms: _1710  and  _1711
REMARK  514  A    between atoms: _1711  and  _1712
REMARK  515  A    between atoms: _1711  and  _1714
REMARK  516  A    between atoms: _1720  and  _1721
REMARK  517  A    between atoms: _1721  and  _1722
REMARK  518  A    between atoms: _1727  and  _1728
REMARK  519  A    between atoms: _1728  and  _1729
REMARK  520  A    between atoms: _1728  and  _1731
REMARK  521  A    between atoms: _1737  and  _1738
REMARK  522  A    between atoms: _1738  and  _1739
REMARK  523  A    between atoms: _1738  and  _1741
REMARK  524  A    between atoms: _1741  and  _1742
REMARK  525  A    between atoms: _1749  and  _1750
REMARK  526  A    between atoms: _1750  and  _1751
REMARK  527  A    between atoms: _1750  and  _1753
REMARK  528  A    between atoms: _1753  and  _1754
REMARK  529  A    between atoms: _1753  and  _1755
REMARK  530  A    between atoms: _1754  and  _1756
REMARK  531  A    between atoms: _1768  and  _1769
REMARK  532  A    between atoms: _1769  and  _1772
REMARK  533  A    between atoms: _1772  and  _1773
REMARK  534  A    between atoms: _1791  and  _1793
REMARK  535  A    between atoms: _1792  and  _1794
REMARK  536  A    between atoms: _1814  and  _1815
REMARK  537  A    between atoms: _1814  and  _1817
REMARK  538  A    between atoms: _1817  and  _1818
REMARK  539  A    between atoms: _1817  and  _1819
REMARK  540  A    between atoms: _1818  and  _1820
REMARK  541  A    between atoms: _1833  and  _1834
REMARK  542  A    between atoms: _1834  and  _1835
REMARK  543  A    between atoms: _1840  and  _1841
REMARK  544  A    between atoms: _1841  and  _1842
REMARK  545  A    between atoms: _1841  and  _1844
REMARK  546  A    between atoms: _1844  and  _1845
REMARK  547  A    between atoms: _1845  and  _1846
REMARK  548  A    between atoms: _1857  and  _1858
REMARK  549  A    between atoms: _1858  and  _1859
REMARK  550  A    between atoms: _1858  and  _1861
REMARK  551  A    between atoms: _1861  and  _1862
REMARK  552  A    between atoms: _1877  and  _1878
REMARK  553  A    between atoms: _1878  and  _1879
REMARK  554  A    between atoms: _1884  and  _1885
REMARK  555  A    between atoms: _1885  and  _1886
REMARK  556  A    between atoms: _1885  and  _1888
REMARK  557  A    between atoms: _1888  and  _1889
REMARK  558  A    between atoms: _1888  and  _1890
REMARK  559  A    between atoms: _1900  and  _1901
REMARK  560  A    between atoms: _1901  and  _1902
REMARK  561  A    between atoms: _1907  and  _1908
REMARK  562  A    between atoms: _1908  and  _1909
REMARK  563  A    between atoms: _1908  and  _1911
REMARK  564  A    between atoms: _1911  and  _1912
REMARK  565  A    between atoms: _1927  and  _1928
REMARK  566  A    between atoms: _1928  and  _1929
REMARK  567  A    between atoms: _1928  and  _1931
REMARK  568  A    between atoms: _1931  and  _1932
REMARK  569  A    between atoms: _1937  and  _1938
REMARK  570  A    between atoms: _1948  and  _1949
REMARK  571  A    between atoms: _1949  and  _1950
REMARK  572  A    between atoms: _1949  and  _1952
REMARK  573  A    between atoms: _1952  and  _1953
REMARK  574  A    between atoms: _1959  and  _1960
REMARK  575  A    between atoms: _1960  and  _1961
REMARK  576  A    between atoms: _1960  and  _1963
REMARK  577  A    between atoms: _1969  and  _1970
REMARK  578  A    between atoms: _1970  and  _1971
REMARK  579  A    between atoms: _1970  and  _1973
REMARK  580  A    between atoms: _1973  and  _1974
REMARK  581  A    between atoms: _1979  and  _1980
REMARK  582  A    between atoms: _1990  and  _1991
REMARK  583  A    between atoms: _1991  and  _1992
REMARK  584  A    between atoms: _1991  and  _1994
REMARK  585  A    between atoms: _1994  and  _1995
REMARK  586  A    between atoms: _1995  and  _1996
REMARK  587  A    between atoms: _1995  and  _1997
REMARK  588  A    between atoms: _2009  and  _2010
REMARK  589  A    between atoms: _2010  and  _2011
REMARK  590  A    between atoms: _2010  and  _2013
REMARK  591  A    between atoms: _2013  and  _2014
REMARK  592  A    between atoms: _2013  and  _2015
REMARK  593  A    between atoms: _2025  and  _2026
REMARK  594  A    between atoms: _2026  and  _2027
REMARK  595  A    between atoms: _2026  and  _2029
REMARK  596  A    between atoms: _2035  and  _2036
REMARK  597  A    between atoms: _2036  and  _2037
REMARK  598  A    between atoms: _2036  and  _2039
REMARK  599  A    between atoms: _2039  and  _2040
REMARK  600  A    between atoms: _2040  and  _2041
REMARK  601  A    between atoms: _2050  and  _2051
REMARK  602  A    between atoms: _2051  and  _2052
REMARK  603  A    between atoms: _2051  and  _2054
REMARK  604  A    between atoms: _2054  and  _2055
REMARK  605  A    between atoms: _2055  and  _2056
REMARK  606  A    between atoms: _2056  and  _2057
REMARK  607  A    between atoms: _2057  and  _2058
REMARK  608  A    between atoms: _2072  and  _2073
REMARK  609  A    between atoms: _2073  and  _2074
REMARK  610  A    between atoms: _2073  and  _2076
REMARK  611  A    between atoms: _2076  and  _2077
REMARK  612  A    between atoms: _2076  and  _2078
REMARK  613  A    between atoms: _2088  and  _2089
REMARK  614  A    between atoms: _2089  and  _2090
REMARK  615  A    between atoms: _2089  and  _2092
REMARK  616  A    between atoms: _2092  and  _2093
REMARK  617  A    between atoms: _2092  and  _2094
REMARK  618  A    between atoms: _2102  and  _2103
REMARK  619  A    between atoms: _2103  and  _2104
REMARK  620  A    between atoms: _2103  and  _2106
REMARK  621  A    between atoms: _2106  and  _2107
REMARK  622  A    between atoms: _2106  and  _2108
REMARK  623  A    between atoms: _2118  and  _2119
REMARK  624  A    between atoms: _2119  and  _2120
REMARK  625  A    between atoms: _2119  and  _2122
REMARK  626  A    between atoms: _2122  and  _2123
REMARK  627  A    between atoms: _2122  and  _2124
REMARK  628  A    between atoms: _2123  and  _2125
REMARK  629  A    between atoms: _2137  and  _2138
REMARK  630  A    between atoms: _2138  and  _2139
REMARK  631  A    between atoms: _2138  and  _2141
REMARK  632  A    between atoms: _2141  and  _2142
REMARK  633  A    between atoms: _2141  and  _2143
REMARK  634  A    between atoms: _2151  and  _2152
REMARK  635  A    between atoms: _2152  and  _2153
REMARK  636  A    between atoms: _2152  and  _2155
REMARK  637  A    between atoms: _2155  and  _2156
REMARK  638  A    between atoms: _2156  and  _2157
REMARK  639  A    between atoms: _2157  and  _2158
REMARK  640  A    between atoms: _2158  and  _2159
REMARK  641  A    between atoms: _2173  and  _2174
REMARK  642  A    between atoms: _2174  and  _2175
REMARK  643  A    between atoms: _2174  and  _2177
REMARK  644  A    between atoms: _2177  and  _2178
REMARK  645  A    between atoms: _2190  and  _2191
REMARK  646  A    between atoms: _2191  and  _2192
REMARK  647  A    between atoms: _2191  and  _2194
REMARK  648  A    between atoms: _2194  and  _2195
REMARK  649  A    between atoms: _2204  and  _2205
REMARK  650  A    between atoms: _2205  and  _2206
REMARK  651  A    between atoms: _2205  and  _2208
REMARK  652  A    between atoms: _2208  and  _2209
REMARK  653  A    between atoms: _2216  and  _2217
REMARK  654  A    between atoms: _2217  and  _2218
REMARK  655  A    between atoms: _2217  and  _2220
REMARK  656  A    between atoms: _2220  and  _2221
REMARK  657  A    between atoms: _2228  and  _2229
REMARK  658  A    between atoms: _2229  and  _2230
REMARK  659  A    between atoms: _2229  and  _2232
REMARK  660  A    between atoms: _2232  and  _2233
REMARK  661  A    between atoms: _2233  and  _2234
REMARK  662  A    between atoms: _2243  and  _2244
REMARK  663  A    between atoms: _2244  and  _2245
REMARK  664  A    between atoms: _2244  and  _2247
REMARK  665  A    between atoms: _2247  and  _2248
REMARK  666  A    between atoms: _2248  and  _2249
REMARK  667  A    between atoms: _2260  and  _2261
REMARK  668  A    between atoms: _2261  and  _2262
REMARK  669  A    between atoms: _2261  and  _2264
REMARK  670  A    between atoms: _2264  and  _2265
REMARK  671  A    between atoms: _2270  and  _2271
REMARK  672  A    between atoms: _2281  and  _2282
REMARK  673  A    between atoms: _2282  and  _2283
REMARK  674  A    between atoms: _2282  and  _2285
REMARK  675  A    between atoms: _2291  and  _2292
REMARK  676  A    between atoms: _2292  and  _2293
REMARK  677  A    between atoms: _2292  and  _2295
REMARK  678  A    between atoms: _2295  and  _2296
REMARK  679  A    between atoms: _2315  and  _2316
REMARK  680  A    between atoms: _2316  and  _2317
REMARK  681  A    between atoms: _2316  and  _2319
REMARK  682  A    between atoms: _2319  and  _2320
REMARK  683  A    between atoms: _2320  and  _2321
REMARK  684  A    between atoms: _2330  and  _2331
REMARK  685  A    between atoms: _2331  and  _2332
REMARK  686  A    between atoms: _2331  and  _2334
REMARK  687  A    between atoms: _2334  and  _2335
REMARK  688  A    between atoms: _2341  and  _2342
REMARK  689  A    between atoms: _2342  and  _2343
REMARK  690  A    between atoms: _2342  and  _2345
REMARK  691  A    between atoms: _2345  and  _2346
REMARK  692  A    between atoms: _2352  and  _2353
REMARK  693  A    between atoms: _2353  and  _2354
REMARK  694  A    between atoms: _2353  and  _2356
REMARK  695  A    between atoms: _2362  and  _2363
REMARK  696  A    between atoms: _2363  and  _2364
REMARK  697  A    between atoms: _2369  and  _2370
REMARK  698  A    between atoms: _2370  and  _2371
REMARK  699  A    between atoms: _2376  and  _2377
REMARK  700  A    between atoms: _2377  and  _2378
REMARK  701  A    between atoms: _2377  and  _2380
REMARK  702  A    between atoms: _2380  and  _2381
REMARK  703  A    between atoms: _2387  and  _2388
REMARK  704  A    between atoms: _2388  and  _2389
REMARK  705  A    between atoms: _2388  and  _2391
REMARK  706  A    between atoms: _2391  and  _2392
REMARK  707  A    between atoms: _2407  and  _2408
REMARK  708  A    between atoms: _2408  and  _2409
REMARK  709  A    between atoms: _2408  and  _2411
REMARK  710  A    between atoms: _2411  and  _2412
REMARK  711  A    between atoms: _2411  and  _2413
REMARK  712  A    between atoms: _2421  and  _2422
REMARK  713  A    between atoms: _2422  and  _2423
REMARK  714  A    between atoms: _2422  and  _2425
REMARK  715  A    between atoms: _2425  and  _2426
REMARK  716  A    between atoms: _2425  and  _2427
REMARK  717  A    between atoms: _2437  and  _2438
REMARK  718  A    between atoms: _2438  and  _2439
REMARK  719  A    between atoms: _2438  and  _2441
REMARK  720  A    between atoms: _2441  and  _2442
REMARK  721  A    between atoms: _2442  and  _2443
REMARK  722  A    between atoms: _2443  and  _2444
REMARK  723  A    between atoms: _2461  and  _2462
REMARK  724  A    between atoms: _2462  and  _2463
REMARK  725  A    between atoms: _2462  and  _2465
REMARK  726  A    between atoms: _2465  and  _2466
REMARK  727  A    between atoms: _2465  and  _2467
REMARK  728  A    between atoms: _2475  and  _2476
REMARK  729  A    between atoms: _2476  and  _2477
REMARK  730  A    between atoms: _2476  and  _2479
REMARK  731  A    between atoms: _2479  and  _2480
REMARK  732  A    between atoms: _2487  and  _2488
REMARK  733  A    between atoms: _2488  and  _2489
REMARK  734  A    between atoms: _2488  and  _2491
REMARK  735  A    between atoms: _2491  and  _2492
REMARK  736  A    between atoms: _2491  and  _2493
REMARK  737  A    between atoms: _2501  and  _2502
REMARK  738  A    between atoms: _2502  and  _2503
REMARK  739  A    between atoms: _2508  and  _2509
REMARK  740  A    between atoms: _2509  and  _2510
REMARK  741  A    between atoms: _2509  and  _2512
REMARK  742  A    between atoms: _2512  and  _2513
REMARK  743  A    between atoms: _2513  and  _2514
REMARK  744  A    between atoms: _2524  and  _2525
REMARK  745  A    between atoms: _2537  and  _2538
REMARK  746  A    between atoms: _2538  and  _2539
REMARK  747  A    between atoms: _2538  and  _2541
REMARK  748  A    between atoms: _2541  and  _2542
REMARK  749  A    between atoms: _2542  and  _2543
REMARK  750  A    between atoms: _2543  and  _2544
REMARK  751  A    between atoms: _2554  and  _2555
REMARK  752  A    between atoms: _2555  and  _2556
REMARK  753  A    between atoms: _2561  and  _2562
REMARK  754  A    between atoms: _2562  and  _2563
REMARK  755  A    between atoms: _2562  and  _2565
REMARK  756  A    between atoms: _2565  and  _2566
REMARK  757  A    between atoms: _2566  and  _2567
REMARK  758  A    between atoms: _2567  and  _2568
REMARK  759  A    between atoms: _2585  and  _2586
REMARK  760  A    between atoms: _2586  and  _2587
REMARK  761  A    between atoms: _2592  and  _2593
REMARK  762  A    between atoms: _2593  and  _2594
REMARK  763  A    between atoms: _2593  and  _2596
REMARK  764  A    between atoms: _2596  and  _2597
REMARK  765  A    between atoms: _2596  and  _2598
REMARK  766  A    between atoms: _2606  and  _2607
REMARK  767  A    between atoms: _2607  and  _2608
REMARK  768  A    between atoms: _2607  and  _2610
REMARK  769  A    between atoms: _2610  and  _2611
REMARK  770  A    between atoms: _2611  and  _2612
REMARK  771  A    between atoms: _2612  and  _2613
REMARK  772  A    between atoms: _2613  and  _2614
REMARK  773  A    between atoms: _2628  and  _2629
REMARK  774  A    between atoms: _2629  and  _2630
REMARK  775  A    between atoms: _2629  and  _2632
REMARK  776  A    between atoms: _2632  and  _2633
REMARK  777  A    between atoms: _2632  and  _2634
REMARK  778  A    between atoms: _2644  and  _2645
REMARK  779  A    between atoms: _2645  and  _2646
REMARK  780  A    between atoms: _2645  and  _2648
REMARK  781  A    between atoms: _2648  and  _2649
REMARK  782  A    between atoms: _2648  and  _2650
REMARK  783  A    between atoms: _2649  and  _2651
REMARK  784  A    between atoms: _2663  and  _2664
REMARK  785  A    between atoms: _2664  and  _2665
REMARK  786  A    between atoms: _2664  and  _2667
REMARK  787  A    between atoms: _2667  and  _2668
REMARK  788  A    between atoms: _2668  and  _2669
REMARK  789  A    between atoms: _2668  and  _2670
REMARK  790  A    between atoms: _2682  and  _2683
REMARK  791  A    between atoms: _2683  and  _2684
REMARK  792  A    between atoms: _2683  and  _2686
REMARK  793  A    between atoms: _2686  and  _2687
REMARK  794  A    between atoms: _2699  and  _2700
REMARK  795  A    between atoms: _2700  and  _2701
REMARK  796  A    between atoms: _2700  and  _2703
REMARK  797  A    between atoms: _2703  and  _2704
REMARK  798  A    between atoms: _2704  and  _2705
REMARK  799  A    between atoms: _2704  and  _2706
REMARK  800  A    between atoms: _2718  and  _2719
REMARK  801  A    between atoms: _2719  and  _2720
REMARK  802  A    between atoms: _2719  and  _2722
REMARK  803  A    between atoms: _2722  and  _2723
REMARK  804  A    between atoms: _2723  and  _2724
REMARK  805  A    between atoms: _2724  and  _2725
REMARK  806  A    between atoms: _2725  and  _2726
REMARK  807  A    between atoms: _2740  and  _2741
REMARK  808  A    between atoms: _2741  and  _2742
REMARK  809  A    between atoms: _2741  and  _2744
REMARK  810  A    between atoms: _2744  and  _2745
REMARK  811  A    between atoms: _2745  and  _2746
REMARK  812  A    between atoms: _2755  and  _2756
REMARK  813  A    between atoms: _2756  and  _2757
REMARK  814  A    between atoms: _2756  and  _2759
REMARK  815  A    between atoms: _2759  and  _2760
REMARK  816  A    between atoms: _2767  and  _2768
REMARK  817  A    between atoms: _2768  and  _2769
REMARK  818  A    between atoms: _2768  and  _2771
REMARK  819  A    between atoms: _2771  and  _2772
REMARK  820  A    between atoms: _2772  and  _2773
REMARK  821  A    between atoms: _2784  and  _2785
REMARK  822  A    between atoms: _2785  and  _2786
REMARK  823  A    between atoms: _2785  and  _2788
REMARK  824  A    between atoms: _2788  and  _2789
REMARK  825  A    between atoms: _2788  and  _2790
REMARK  826  A    between atoms: _2798  and  _2799
REMARK  827  A    between atoms: _2799  and  _2800
REMARK  828  A    between atoms: _2799  and  _2802
REMARK  829  A    between atoms: _2802  and  _2803
REMARK  830  A    between atoms: _2803  and  _2804
REMARK  831  A    between atoms: _2813  and  _2814
REMARK  832  A    between atoms: _2814  and  _2815
REMARK  833  A    between atoms: _2814  and  _2817
REMARK  834  A    between atoms: _2817  and  _2818
REMARK  835  A    between atoms: _2823  and  _2824
REMARK  836  A    between atoms: _2834  and  _2835
REMARK  837  A    between atoms: _2835  and  _2838
REMARK  838  A    between atoms: _2838  and  _2839
REMARK  839  A    between atoms: _2839  and  _2840
REMARK  840  A    between atoms: _2839  and  _2841
REMARK  841  A    between atoms: _2884  and  _2885
REMARK  842  A    between atoms: _2884  and  _2887
REMARK  843  A    between atoms: _2887  and  _2888
REMARK  844  A    between atoms: _2888  and  _2889
REMARK  845  A    between atoms: _2899  and  _2900
REMARK  846  A    between atoms: _2900  and  _2901
REMARK  847  A    between atoms: _2900  and  _2903
REMARK  848  A    between atoms: _2903  and  _2904
REMARK  849  A    between atoms: _2904  and  _2905
REMARK  850  A    between atoms: _2905  and  _2906
REMARK  851  A    between atoms: _2923  and  _2924
REMARK  852  A    between atoms: _2924  and  _2925
REMARK  853  A    between atoms: _2924  and  _2927
REMARK  854  A    between atoms: _2927  and  _2928
REMARK  855  A    between atoms: _2928  and  _2929
REMARK  856  A    between atoms: _2929  and  _2930
REMARK  857  A    between atoms: _2947  and  _2948
REMARK  858  A    between atoms: _2948  and  _2949
REMARK  859  A    between atoms: _2948  and  _2951
REMARK  860  A    between atoms: _2951  and  _2952
REMARK  861  A    between atoms: _2951  and  _2953
REMARK  862  A    between atoms: _2952  and  _2954
REMARK  863  A    between atoms: _2966  and  _2967
REMARK  864  A    between atoms: _2967  and  _2968
REMARK  865  A    between atoms: _2967  and  _2970
REMARK  866  A    between atoms: _2970  and  _2971
REMARK  867  A    between atoms: _2971  and  _2972
REMARK  868  A    between atoms: _2972  and  _2973
REMARK  869  A    between atoms: _2973  and  _2974
REMARK  870  A    between atoms: _2988  and  _2989
REMARK  871  A    between atoms: _2989  and  _2990
REMARK  872  A    between atoms: _2989  and  _2992
REMARK  873  A    between atoms: _2992  and  _2993
REMARK  874  A    between atoms: _2993  and  _2994
REMARK  875  A    between atoms: _3003  and  _3004
REMARK  876  A    between atoms: _3004  and  _3005
REMARK  877  A    between atoms: _3004  and  _3007
REMARK  878  A    between atoms: _3007  and  _3008
REMARK  879  A    between atoms: _3007  and  _3009
REMARK  880  A    between atoms: _3008  and  _3010
REMARK  881  A    between atoms: _3022  and  _3023
REMARK  882  A    between atoms: _3023  and  _3024
REMARK  883  A    between atoms: _3023  and  _3026
REMARK  884  A    between atoms: _3026  and  _3027
REMARK  885  A    between atoms: _3026  and  _3028
REMARK  886  A    between atoms: _3038  and  _3039
REMARK  887  A    between atoms: _3039  and  _3040
REMARK  888  A    between atoms: _3039  and  _3042
REMARK  889  A    between atoms: _3042  and  _3043
REMARK  890  A    between atoms: _3043  and  _3044
REMARK  891  A    between atoms: _3044  and  _3045
REMARK  892  A    between atoms: _3045  and  _3046
REMARK  893  A    between atoms: _3060  and  _3061
REMARK  894  A    between atoms: _3061  and  _3062
REMARK  895  A    between atoms: _3061  and  _3064
REMARK  896  A    between atoms: _3064  and  _3065
REMARK  897  A    between atoms: _3065  and  _3066
REMARK  898  A    between atoms: _3066  and  _3067
REMARK  899  A    between atoms: _3067  and  _3068
REMARK  900  A    between atoms: _3082  and  _3083
REMARK  901  A    between atoms: _3083  and  _3084
REMARK  902  A    between atoms: _3083  and  _3086
REMARK  903  A    between atoms: _3086  and  _3087
REMARK  904  A    between atoms: _3099  and  _3100
REMARK  905  A    between atoms: _3100  and  _3101
REMARK  906  A    between atoms: _3100  and  _3103
REMARK  907  A    between atoms: _3103  and  _3104
REMARK  908  A    between atoms: _3110  and  _3111
REMARK  909  A    between atoms: _3111  and  _3112
REMARK  910  A    between atoms: _3111  and  _3114
REMARK  911  A    between atoms: _3114  and  _3115
REMARK  912  A    between atoms: _3115  and  _3116
REMARK  913  A    between atoms: _3127  and  _3128
REMARK  914  A    between atoms: _3128  and  _3129
REMARK  915  A    between atoms: _3128  and  _3131
REMARK  916  A    between atoms: _3131  and  _3132
REMARK  917  A    between atoms: _3147  and  _3148
REMARK  918  A    between atoms: _3148  and  _3149
REMARK  919  A    between atoms: _3148  and  _3151
REMARK  920  A    between atoms: _3151  and  _3152
REMARK  921  A    between atoms: _3151  and  _3153
REMARK  922  A    between atoms: _3152  and  _3154
REMARK  923  A    between atoms: _3166  and  _3167
REMARK  924  A    between atoms: _3167  and  _3168
REMARK  925  A    between atoms: _3173  and  _3174
REMARK  926  A    between atoms: _3174  and  _3175
REMARK  927  A    between atoms: _3174  and  _3177
REMARK  928  A    between atoms: _3177  and  _3178
REMARK  929  A    between atoms: _3183  and  _3184
REMARK  930  A    between atoms: _3195  and  _3196
REMARK  931  A    between atoms: _3208  and  _3209
REMARK  932  A    between atoms: _3209  and  _3210
REMARK  933  A    between atoms: _3209  and  _3212
REMARK  934  A    between atoms: _3212  and  _3213
REMARK  935  A    between atoms: _3212  and  _3214
REMARK  936  A    between atoms: _3213  and  _3215
REMARK  937  A    between atoms: _3227  and  _3228
REMARK  938  A    between atoms: _3228  and  _3229
REMARK  939  A    between atoms: _3228  and  _3231
REMARK  940  A    between atoms: _3231  and  _3232
REMARK  941  A    between atoms: _3231  and  _3233
REMARK  942  A    between atoms: _3241  and  _3242
REMARK  943  A    between atoms: _3242  and  _3243
REMARK  944  A    between atoms: _3242  and  _3245
REMARK  945  A    between atoms: _3245  and  _3246
REMARK  946  A    between atoms: _3246  and  _3247
REMARK  947  A    between atoms: _3246  and  _3248
REMARK  948  A    between atoms: _3260  and  _3261
REMARK  949  A    between atoms: _3261  and  _3262
REMARK  950  A    between atoms: _3261  and  _3264
REMARK  951  A    between atoms: _3264  and  _3265
REMARK  952  A    between atoms: _3280  and  _3281
REMARK  953  A    between atoms: _3281  and  _3282
REMARK  954  A    between atoms: _3281  and  _3284
REMARK  955  A    between atoms: _3284  and  _3285
REMARK  956  A    between atoms: _3284  and  _3286
REMARK  957  A    between atoms: _3296  and  _3297
REMARK  958  A    between atoms: _3297  and  _3298
REMARK  959  A    between atoms: _3297  and  _3300
REMARK  960  A    between atoms: _3300  and  _3301
REMARK  961  A    between atoms: _3301  and  _3302
REMARK                            x       y       z     vdW  Elec       q    Type
REMARK                         _______ _______ _______ _____ _____    ______ ____
ROOT
ATOM      1  C   UNL     1       6.917  39.095  40.661  0.00  0.00    +0.000 C 
ENDROOT
TORSDOF 0
REMARK  Name = /Users/mlugowska/PhD/ML_residence_time_prediction/protein_files/5J20_protein.pdb
REMARK  961 active torsions:
REMARK  status: ('A' for Active; 'I' for Inactive)
REMARK    1  A    between atoms: _2  and  _3
REMARK    2  A    between atoms: _2  and  _5
REMARK    3  A    between atoms: _10  and  _11
REMARK    4  A    between atoms: _11  and  _12
REMARK    5  A    between atoms: _11  and  _14
REMARK    6  A    between atoms: _14  and  _15
REMARK    7  A    between atoms: _14  and  _16
REMARK    8  A    between atoms: _26  and  _27
REMARK    9  A    between atoms: _27  and  _28
REMARK   10  A    between atoms: _27  and  _30
REMARK   11  A    between atoms: _30  and  _31
REMARK   12  A    between atoms: _31  and  _32
REMARK   13  A    between atoms: _41  and  _42
REMARK   14  A    between atoms: _42  and  _43
REMARK   15  A    between atoms: _42  and  _45
REMARK   16  A    between atoms: _45  and  _46
REMARK   17  A    between atoms: _45  and  _47
REMARK   18  A    between atoms: _55  and  _56
REMARK   19  A    between atoms: _56  and  _57
REMARK   20  A    between atoms: _56  and  _59
REMARK   21  A    between atoms: _59  and  _60
REMARK   22  A    between atoms: _75  and  _76
REMARK   23  A    between atoms: _76  and  _77
REMARK   24  A    between atoms: _76  and  _79
REMARK   25  A    between atoms: _85  and  _86
REMARK   26  A    between atoms: _86  and  _87
REMARK   27  A    between atoms: _86  and  _89
REMARK   28  A    between atoms: _89  and  _90
REMARK   29  A    between atoms: _105  and  _106
REMARK   30  A    between atoms: _106  and  _107
REMARK   31  A    between atoms: _106  and  _109
REMARK   32  A    between atoms: _109  and  _110
REMARK   33  A    between atoms: _110  and  _111
REMARK   34  A    between atoms: _122  and  _123
REMARK   35  A    between atoms: _123  and  _124
REMARK   36  A    between atoms: _123  and  _126
REMARK   37  A    between atoms: _132  and  _133
REMARK   38  A    between atoms: _133  and  _134
REMARK   39  A    between atoms: _133  and  _136
REMARK   40  A    between atoms: _136  and  _137
REMARK   41  A    between atoms: _137  and  _138
REMARK   42  A    between atoms: _147  and  _148
REMARK   43  A    between atoms: _148  and  _149
REMARK   44  A    between atoms: _148  and  _151
REMARK   45  A    between atoms: _151  and  _152
REMARK   46  A    between atoms: _151  and  _153
REMARK   47  A    between atoms: _152  and  _154
REMARK   48  A    between atoms: _166  and  _167
REMARK   49  A    between atoms: _167  and  _168
REMARK   50  A    between atoms: _167  and  _170
REMARK   51  A    between atoms: _176  and  _177
REMARK   52  A    between atoms: _177  and  _178
REMARK   53  A    between atoms: _177  and  _180
REMARK   54  A    between atoms: _180  and  _181
REMARK   55  A    between atoms: _181  and  _182
REMARK   56  A    between atoms: _193  and  _194
REMARK   57  A    between atoms: _194  and  _195
REMARK   58  A    between atoms: _194  and  _197
REMARK   59  A    between atoms: _197  and  _198
REMARK   60  A    between atoms: _198  and  _199
REMARK   61  A    between atoms: _198  and  _200
REMARK   62  A    between atoms: _212  and  _213
REMARK   63  A    between atoms: _213  and  _214
REMARK   64  A    between atoms: _213  and  _216
REMARK   65  A    between atoms: _216  and  _217
REMARK   66  A    between atoms: _217  and  _218
REMARK   67  A    between atoms: _218  and  _219
REMARK   68  A    between atoms: _229  and  _230
REMARK   69  A    between atoms: _230  and  _231
REMARK   70  A    between atoms: _230  and  _233
REMARK   71  A    between atoms: _233  and  _234
REMARK   72  A    between atoms: _240  and  _241
REMARK   73  A    between atoms: _241  and  _242
REMARK   74  A    between atoms: _241  and  _244
REMARK   75  A    between atoms: _244  and  _245
REMARK   76  A    between atoms: _245  and  _246
REMARK   77  A    between atoms: _245  and  _247
REMARK   78  A    between atoms: _259  and  _260
REMARK   79  A    between atoms: _260  and  _261
REMARK   80  A    between atoms: _260  and  _263
REMARK   81  A    between atoms: _263  and  _264
REMARK   82  A    between atoms: _263  and  _265
REMARK   83  A    between atoms: _264  and  _266
REMARK   84  A    between atoms: _278  and  _279
REMARK   85  A    between atoms: _279  and  _280
REMARK   86  A    between atoms: _279  and  _282
REMARK   87  A    between atoms: _282  and  _283
REMARK   88  A    between atoms: _282  and  _284
REMARK   89  A    between atoms: _283  and  _285
REMARK   90  A    between atoms: _297  and  _298
REMARK   91  A    between atoms: _298  and  _299
REMARK   92  A    between atoms: _298  and  _301
REMARK   93  A    between atoms: _301  and  _302
REMARK   94  A    between atoms: _311  and  _312
REMARK   95  A    between atoms: _312  and  _313
REMARK   96  A    between atoms: _312  and  _315
REMARK   97  A    between atoms: _315  and  _316
REMARK   98  A    between atoms: _315  and  _317
REMARK   99  A    between atoms: _325  and  _326
REMARK  100  A    between atoms: _326  and  _327
REMARK  101  A    between atoms: _326  and  _329
REMARK  102  A    between atoms: _329  and  _330
REMARK  103  A    between atoms: _345  and  _346
REMARK  104  A    between atoms: _346  and  _347
REMARK  105  A    between atoms: _346  and  _349
REMARK  106  A    between atoms: _349  and  _350
REMARK  107  A    between atoms: _355  and  _356
REMARK  108  A    between atoms: _366  and  _367
REMARK  109  A    between atoms: _367  and  _368
REMARK  110  A    between atoms: _367  and  _370
REMARK  111  A    between atoms: _370  and  _371
REMARK  112  A    between atoms: _377  and  _378
REMARK  113  A    between atoms: _378  and  _379
REMARK  114  A    between atoms: _378  and  _381
REMARK  115  A    between atoms: _381  and  _382
REMARK  116  A    between atoms: _391  and  _392
REMARK  117  A    between atoms: _392  and  _393
REMARK  118  A    between atoms: _392  and  _395
REMARK  119  A    between atoms: _395  and  _396
REMARK  120  A    between atoms: _396  and  _397
REMARK  121  A    between atoms: _397  and  _398
REMARK  122  A    between atoms: _398  and  _399
REMARK  123  A    between atoms: _413  and  _414
REMARK  124  A    between atoms: _414  and  _415
REMARK  125  A    between atoms: _414  and  _417
REMARK  126  A    between atoms: _417  and  _418
REMARK  127  A    between atoms: _418  and  _419
REMARK  128  A    between atoms: _428  and  _429
REMARK  129  A    between atoms: _429  and  _430
REMARK  130  A    between atoms: _429  and  _432
REMARK  131  A    between atoms: _432  and  _433
REMARK  132  A    between atoms: _432  and  _434
REMARK  133  A    between atoms: _433  and  _435
REMARK  134  A    between atoms: _447  and  _448
REMARK  135  A    between atoms: _448  and  _449
REMARK  136  A    between atoms: _448  and  _451
REMARK  137  A    between atoms: _451  and  _452
REMARK  138  A    between atoms: _467  and  _468
REMARK  139  A    between atoms: _468  and  _469
REMARK  140  A    between atoms: _468  and  _471
REMARK  141  A    between atoms: _471  and  _472
REMARK  142  A    between atoms: _472  and  _473
REMARK  143  A    between atoms: _472  and  _474
REMARK  144  A    between atoms: _486  and  _487
REMARK  145  A    between atoms: _487  and  _488
REMARK  146  A    between atoms: _487  and  _490
REMARK  147  A    between atoms: _490  and  _491
REMARK  148  A    between atoms: _491  and  _492
REMARK  149  A    between atoms: _492  and  _493
REMARK  150  A    between atoms: _510  and  _511
REMARK  151  A    between atoms: _511  and  _512
REMARK  152  A    between atoms: _511  and  _514
REMARK  153  A    between atoms: _514  and  _515
REMARK  154  A    between atoms: _515  and  _516
REMARK  155  A    between atoms: _525  and  _526
REMARK  156  A    between atoms: _526  and  _527
REMARK  157  A    between atoms: _526  and  _529
REMARK  158  A    between atoms: _529  and  _530
REMARK  159  A    between atoms: _530  and  _531
REMARK  160  A    between atoms: _530  and  _532
REMARK  161  A    between atoms: _544  and  _545
REMARK  162  A    between atoms: _545  and  _546
REMARK  163  A    between atoms: _545  and  _548
REMARK  164  A    between atoms: _548  and  _549
REMARK  165  A    between atoms: _548  and  _550
REMARK  166  A    between atoms: _549  and  _551
REMARK  167  A    between atoms: _563  and  _564
REMARK  168  A    between atoms: _564  and  _565
REMARK  169  A    between atoms: _564  and  _567
REMARK  170  A    between atoms: _567  and  _568
REMARK  171  A    between atoms: _574  and  _575
REMARK  172  A    between atoms: _575  and  _576
REMARK  173  A    between atoms: _575  and  _578
REMARK  174  A    between atoms: _578  and  _579
REMARK  175  A    between atoms: _588  and  _589
REMARK  176  A    between atoms: _589  and  _590
REMARK  177  A    between atoms: _589  and  _592
REMARK  178  A    between atoms: _592  and  _593
REMARK  179  A    between atoms: _599  and  _600
REMARK  180  A    between atoms: _600  and  _601
REMARK  181  A    between atoms: _600  and  _603
REMARK  182  A    between atoms: _603  and  _604
REMARK  183  A    between atoms: _610  and  _611
REMARK  184  A    between atoms: _611  and  _612
REMARK  185  A    between atoms: _611  and  _614
REMARK  186  A    between atoms: _614  and  _615
REMARK  187  A    between atoms: _622  and  _623
REMARK  188  A    between atoms: _623  and  _624
REMARK  189  A    between atoms: _623  and  _626
REMARK  190  A    between atoms: _632  and  _633
REMARK  191  A    between atoms: _633  and  _634
REMARK  192  A    between atoms: _633  and  _636
REMARK  193  A    between atoms: _636  and  _637
REMARK  194  A    between atoms: _637  and  _638
REMARK  195  A    between atoms: _637  and  _639
REMARK  196  A    between atoms: _651  and  _652
REMARK  197  A    between atoms: _652  and  _653
REMARK  198  A    between atoms: _652  and  _655
REMARK  199  A    between atoms: _655  and  _656
REMARK  200  A    between atoms: _663  and  _664
REMARK  201  A    between atoms: _664  and  _665
REMARK  202  A    between atoms: _664  and  _667
REMARK  203  A    between atoms: _667  and  _668
REMARK  204  A    between atoms: _668  and  _669
REMARK  205  A    between atoms: _669  and  _670
REMARK  206  A    between atoms: _670  and  _671
REMARK  207  A    between atoms: _685  and  _686
REMARK  208  A    between atoms: _686  and  _687
REMARK  209  A    between atoms: _686  and  _689
REMARK  210  A    between atoms: _689  and  _690
REMARK  211  A    between atoms: _689  and  _691
REMARK  212  A    between atoms: _690  and  _692
REMARK  213  A    between atoms: _704  and  _705
REMARK  214  A    between atoms: _705  and  _706
REMARK  215  A    between atoms: _705  and  _708
REMARK  216  A    between atoms: _708  and  _709
REMARK  217  A    between atoms: _709  and  _710
REMARK  218  A    between atoms: _710  and  _711
REMARK  219  A    between atoms: _728  and  _729
REMARK  220  A    between atoms: _729  and  _730
REMARK  221  A    between atoms: _729  and  _732
REMARK  222  A    between atoms: _732  and  _733
REMARK  223  A    between atoms: _738  and  _739
REMARK  224  A    between atoms: _749  and  _750
REMARK  225  A    between atoms: _750  and  _751
REMARK  226  A    between atoms: _750  and  _753
REMARK  227  A    between atoms: _753  and  _754
REMARK  228  A    between atoms: _754  and  _755
REMARK  229  A    between atoms: _764  and  _765
REMARK  230  A    between atoms: _765  and  _766
REMARK  231  A    between atoms: _765  and  _768
REMARK  232  A    between atoms: _772  and  _773
REMARK  233  A    between atoms: _773  and  _774
REMARK  234  A    between atoms: _773  and  _776
REMARK  235  A    between atoms: _776  and  _777
REMARK  236  A    between atoms: _777  and  _778
REMARK  237  A    between atoms: _777  and  _779
REMARK  238  A    between atoms: _791  and  _792
REMARK  239  A    between atoms: _792  and  _793
REMARK  240  A    between atoms: _792  and  _795
REMARK  241  A    between atoms: _795  and  _796
REMARK  242  A    between atoms: _795  and  _797
REMARK  243  A    between atoms: _805  and  _806
REMARK  244  A    between atoms: _806  and  _807
REMARK  245  A    between atoms: _806  and  _809
REMARK  246  A    between atoms: _809  and  _810
REMARK  247  A    between atoms: _818  and  _819
REMARK  248  A    between atoms: _831  and  _832
REMARK  249  A    between atoms: _832  and  _833
REMARK  250  A    between atoms: _832  and  _835
REMARK  251  A    between atoms: _835  and  _836
REMARK  252  A    between atoms: _842  and  _843
REMARK  253  A    between atoms: _843  and  _844
REMARK  254  A    between atoms: _843  and  _846
REMARK  255  A    between atoms: _846  and  _847
REMARK  256  A    between atoms: _847  and  _848
REMARK  257  A    between atoms: _848  and  _849
REMARK  258  A    between atoms: _849  and  _850
REMARK  259  A    between atoms: _864  and  _865
REMARK  260  A    between atoms: _865  and  _866
REMARK  261  A    between atoms: _865  and  _868
REMARK  262  A    between atoms: _868  and  _869
REMARK  263  A    between atoms: _869  and  _870
REMARK  264  A    between atoms: _869  and  _871
REMARK  265  A    between atoms: _883  and  _884
REMARK  266  A    between atoms: _884  and  _885
REMARK  267  A    between atoms: _884  and  _887
REMARK  268  A    between atoms: _887  and  _888
REMARK  269  A    between atoms: _895  and  _896
REMARK  270  A    between atoms: _896  and  _897
REMARK  271  A    between atoms: _896  and  _899
REMARK  272  A    between atoms: _899  and  _900
REMARK  273  A    between atoms: _906  and  _907
REMARK  274  A    between atoms: _907  and  _908
REMARK  275  A    between atoms: _913  and  _914
REMARK  276  A    between atoms: _914  and  _915
REMARK  277  A    between atoms: _914  and  _917
REMARK  278  A    between atoms: _917  and  _918
REMARK  279  A    between atoms: _918  and  _919
REMARK  280  A    between atoms: _919  and  _920
REMARK  281  A    between atoms: _920  and  _921
REMARK  282  A    between atoms: _935  and  _936
REMARK  283  A    between atoms: _936  and  _937
REMARK  284  A    between atoms: _936  and  _939
REMARK  285  A    between atoms: _939  and  _940
REMARK  286  A    between atoms: _940  and  _941
REMARK  287  A    between atoms: _950  and  _951
REMARK  288  A    between atoms: _951  and  _952
REMARK  289  A    between atoms: _951  and  _954
REMARK  290  A    between atoms: _954  and  _955
REMARK  291  A    between atoms: _955  and  _956
REMARK  292  A    between atoms: _955  and  _957
REMARK  293  A    between atoms: _969  and  _970
REMARK  294  A    between atoms: _970  and  _971
REMARK  295  A    between atoms: _970  and  _973
REMARK  296  A    between atoms: _973  and  _974
REMARK  297  A    between atoms: _986  and  _987
REMARK  298  A    between atoms: _987  and  _988
REMARK  299  A    between atoms: _987  and  _990
REMARK  300  A    between atoms: _990  and  _991
REMARK  301  A    between atoms: _990  and  _992
REMARK  302  A    between atoms: _991  and  _993
REMARK  303  A    between atoms: _1005  and  _1006
REMARK  304  A    between atoms: _1006  and  _1007
REMARK  305  A    between atoms: _1006  and  _1009
REMARK  306  A    between atoms: _1009  and  _1010
REMARK  307  A    between atoms: _1019  and  _1020
REMARK  308  A    between atoms: _1020  and  _1021
REMARK  309  A    between atoms: _1020  and  _1023
REMARK  310  A    between atoms: _1023  and  _1024
REMARK  311  A    between atoms: _1024  and  _1025
REMARK  312  A    between atoms: _1024  and  _1026
REMARK  313  A    between atoms: _1038  and  _1039
REMARK  314  A    between atoms: _1039  and  _1040
REMARK  315  A    between atoms: _1039  and  _1042
REMARK  316  A    between atoms: _1042  and  _1043
REMARK  317  A    between atoms: _1042  and  _1044
REMARK  318  A    between atoms: _1043  and  _1045
REMARK  319  A    between atoms: _1058  and  _1059
REMARK  320  A    between atoms: _1071  and  _1072
REMARK  321  A    between atoms: _1072  and  _1073
REMARK  322  A    between atoms: _1072  and  _1075
REMARK  323  A    between atoms: _1075  and  _1076
REMARK  324  A    between atoms: _1085  and  _1086
REMARK  325  A    between atoms: _1086  and  _1087
REMARK  326  A    between atoms: _1086  and  _1089
REMARK  327  A    between atoms: _1089  and  _1090
REMARK  328  A    between atoms: _1090  and  _1091
REMARK  329  A    between atoms: _1091  and  _1092
REMARK  330  A    between atoms: _1092  and  _1093
REMARK  331  A    between atoms: _1107  and  _1108
REMARK  332  A    between atoms: _1108  and  _1109
REMARK  333  A    between atoms: _1108  and  _1111
REMARK  334  A    between atoms: _1111  and  _1112
REMARK  335  A    between atoms: _1112  and  _1113
REMARK  336  A    between atoms: _1124  and  _1125
REMARK  337  A    between atoms: _1125  and  _1126
REMARK  338  A    between atoms: _1125  and  _1128
REMARK  339  A    between atoms: _1128  and  _1129
REMARK  340  A    between atoms: _1136  and  _1137
REMARK  341  A    between atoms: _1137  and  _1138
REMARK  342  A    between atoms: _1137  and  _1140
REMARK  343  A    between atoms: _1140  and  _1141
REMARK  344  A    between atoms: _1141  and  _1142
REMARK  345  A    between atoms: _1142  and  _1143
REMARK  346  A    between atoms: _1160  and  _1161
REMARK  347  A    between atoms: _1161  and  _1162
REMARK  348  A    between atoms: _1161  and  _1164
REMARK  349  A    between atoms: _1164  and  _1165
REMARK  350  A    between atoms: _1164  and  _1166
REMARK  351  A    between atoms: _1174  and  _1175
REMARK  352  A    between atoms: _1175  and  _1176
REMARK  353  A    between atoms: _1175  and  _1178
REMARK  354  A    between atoms: _1178  and  _1179
REMARK  355  A    between atoms: _1179  and  _1180
REMARK  356  A    between atoms: _1179  and  _1181
REMARK  357  A    between atoms: _1193  and  _1194
REMARK  358  A    between atoms: _1194  and  _1195
REMARK  359  A    between atoms: _1194  and  _1197
REMARK  360  A    between atoms: _1197  and  _1198
REMARK  361  A    between atoms: _1197  and  _1199
REMARK  362  A    between atoms: _1207  and  _1208
REMARK  363  A    between atoms: _1208  and  _1209
REMARK  364  A    between atoms: _1208  and  _1211
REMARK  365  A    between atoms: _1211  and  _1212
REMARK  366  A    between atoms: _1211  and  _1213
REMARK  367  A    between atoms: _1212  and  _1214
REMARK  368  A    between atoms: _1226  and  _1227
REMARK  369  A    between atoms: _1227  and  _1228
REMARK  370  A    between atoms: _1227  and  _1230
REMARK  371  A    between atoms: _1230  and  _1231
REMARK  372  A    between atoms: _1230  and  _1232
REMARK  373  A    between atoms: _1242  and  _1243
REMARK  374  A    between atoms: _1243  and  _1244
REMARK  375  A    between atoms: _1243  and  _1246
REMARK  376  A    between atoms: _1246  and  _1247
REMARK  377  A    between atoms: _1254  and  _1255
REMARK  378  A    between atoms: _1255  and  _1256
REMARK  379  A    between atoms: _1255  and  _1258
REMARK  380  A    between atoms: _1258  and  _1259
REMARK  381  A    between atoms: _1258  and  _1260
REMARK  382  A    between atoms: _1268  and  _1269
REMARK  383  A    between atoms: _1269  and  _1270
REMARK  384  A    between atoms: _1275  and  _1276
REMARK  385  A    between atoms: _1276  and  _1277
REMARK  386  A    between atoms: _1276  and  _1279
REMARK  387  A    between atoms: _1279  and  _1280
REMARK  388  A    between atoms: _1279  and  _1281
REMARK  389  A    between atoms: _1280  and  _1282
REMARK  390  A    between atoms: _1294  and  _1295
REMARK  391  A    between atoms: _1295  and  _1296
REMARK  392  A    between atoms: _1301  and  _1302
REMARK  393  A    between atoms: _1302  and  _1303
REMARK  394  A    between atoms: _1302  and  _1305
REMARK  395  A    between atoms: _1305  and  _1306
REMARK  396  A    between atoms: _1306  and  _1307
REMARK  397  A    between atoms: _1307  and  _1308
REMARK  398  A    between atoms: _1318  and  _1319
REMARK  399  A    between atoms: _1319  and  _1320
REMARK  400  A    between atoms: _1319  and  _1322
REMARK  401  A    between atoms: _1322  and  _1323
REMARK  402  A    between atoms: _1322  and  _1324
REMARK  403  A    between atoms: _1332  and  _1333
REMARK  404  A    between atoms: _1333  and  _1334
REMARK  405  A    between atoms: _1333  and  _1336
REMARK  406  A    between atoms: _1336  and  _1337
REMARK  407  A    between atoms: _1337  and  _1338
REMARK  408  A    between atoms: _1338  and  _1339
REMARK  409  A    between atoms: _1339  and  _1340
REMARK  410  A    between atoms: _1354  and  _1355
REMARK  411  A    between atoms: _1355  and  _1356
REMARK  412  A    between atoms: _1355  and  _1358
REMARK  413  A    between atoms: _1364  and  _1365
REMARK  414  A    between atoms: _1365  and  _1366
REMARK  415  A    between atoms: _1365  and  _1368
REMARK  416  A    between atoms: _1368  and  _1369
REMARK  417  A    between atoms: _1376  and  _1377
REMARK  418  A    between atoms: _1377  and  _1378
REMARK  419  A    between atoms: _1377  and  _1380
REMARK  420  A    between atoms: _1380  and  _1381
REMARK  421  A    between atoms: _1381  and  _1382
REMARK  422  A    between atoms: _1381  and  _1383
REMARK  423  A    between atoms: _1395  and  _1396
REMARK  424  A    between atoms: _1396  and  _1399
REMARK  425  A    between atoms: _1399  and  _1400
REMARK  426  A    between atoms: _1399  and  _1401
REMARK  427  A    between atoms: _1400  and  _1402
REMARK  428  A    between atoms: _1422  and  _1425
REMARK  429  A    between atoms: _1424  and  _1428
REMARK  430  A    between atoms: _1425  and  _1427
REMARK  431  A    between atoms: _1443  and  _1444
REMARK  432  A    between atoms: _1443  and  _1446
REMARK  433  A    between atoms: _1446  and  _1447
REMARK  434  A    between atoms: _1457  and  _1458
REMARK  435  A    between atoms: _1458  and  _1459
REMARK  436  A    between atoms: _1458  and  _1461
REMARK  437  A    between atoms: _1461  and  _1462
REMARK  438  A    between atoms: _1462  and  _1463
REMARK  439  A    between atoms: _1462  and  _1464
REMARK  440  A    between atoms: _1476  and  _1477
REMARK  441  A    between atoms: _1477  and  _1478
REMARK  442  A    between atoms: _1483  and  _1484
REMARK  443  A    between atoms: _1484  and  _1485
REMARK  444  A    between atoms: _1484  and  _1487
REMARK  445  A    between atoms: _1487  and  _1488
REMARK  446  A    between atoms: _1487  and  _1489
REMARK  447  A    between atoms: _1497  and  _1498
REMARK  448  A    between atoms: _1498  and  _1499
REMARK  449  A    between atoms: _1498  and  _1501
REMARK  450  A    between atoms: _1501  and  _1502
REMARK  451  A    between atoms: _1501  and  _1503
REMARK  452  A    between atoms: _1502  and  _1504
REMARK  453  A    between atoms: _1516  and  _1517
REMARK  454  A    between atoms: _1517  and  _1518
REMARK  455  A    between atoms: _1517  and  _1520
REMARK  456  A    between atoms: _1526  and  _1527
REMARK  457  A    between atoms: _1527  and  _1528
REMARK  458  A    between atoms: _1527  and  _1530
REMARK  459  A    between atoms: _1530  and  _1531
REMARK  460  A    between atoms: _1531  and  _1532
REMARK  461  A    between atoms: _1532  and  _1533
REMARK  462  A    between atoms: _1533  and  _1534
REMARK  463  A    between atoms: _1548  and  _1549
REMARK  464  A    between atoms: _1549  and  _1550
REMARK  465  A    between atoms: _1549  and  _1552
REMARK  466  A    between atoms: _1552  and  _1553
REMARK  467  A    between atoms: _1559  and  _1560
REMARK  468  A    between atoms: _1560  and  _1561
REMARK  469  A    between atoms: _1566  and  _1567
REMARK  470  A    between atoms: _1567  and  _1568
REMARK  471  A    between atoms: _1567  and  _1570
REMARK  472  A    between atoms: _1570  and  _1571
REMARK  473  A    between atoms: _1570  and  _1572
REMARK  474  A    between atoms: _1580  and  _1581
REMARK  475  A    between atoms: _1581  and  _1582
REMARK  476  A    between atoms: _1581  and  _1584
REMARK  477  A    between atoms: _1584  and  _1585
REMARK  478  A    between atoms: _1585  and  _1586
REMARK  479  A    between atoms: _1586  and  _1587
REMARK  480  A    between atoms: _1587  and  _1588
REMARK  481  A    between atoms: _1602  and  _1603
REMARK  482  A    between atoms: _1603  and  _1604
REMARK  483  A    between atoms: _1603  and  _1606
REMARK  484  A    between atoms: _1612  and  _1613
REMARK  485  A    between atoms: _1613  and  _1614
REMARK  486  A    between atoms: _1613  and  _1616
REMARK  487  A    between atoms: _1616  and  _1617
REMARK  488  A    between atoms: _1632  and  _1633
REMARK  489  A    between atoms: _1633  and  _1634
REMARK  490  A    between atoms: _1633  and  _1636
REMARK  491  A    between atoms: _1636  and  _1637
REMARK  492  A    between atoms: _1637  and  _1638
REMARK  493  A    between atoms: _1638  and  _1639
REMARK  494  A    between atoms: _1649  and  _1650
REMARK  495  A    between atoms: _1650  and  _1651
REMARK  496  A    between atoms: _1650  and  _1653
REMARK  497  A    between atoms: _1653  and  _1654
REMARK  498  A    between atoms: _1654  and  _1655
REMARK  499  A    between atoms: _1664  and  _1665
REMARK  500  A    between atoms: _1665  and  _1666
REMARK  501  A    between atoms: _1665  and  _1668
REMARK  502  A    between atoms: _1674  and  _1675
REMARK  503  A    between atoms: _1675  and  _1676
REMARK  504  A    between atoms: _1675  and  _1678
REMARK  505  A    between atoms: _1678  and  _1679
REMARK  506  A    between atoms: _1679  and  _1680
REMARK  507  A    between atoms: _1679  and  _1681
REMARK  508  A    between atoms: _1693  and  _1694
REMARK  509  A    between atoms: _1694  and  _1695
REMARK  510  A    between atoms: _1694  and  _1697
REMARK  511  A    between atoms: _1697  and  _1698
REMARK  512  A    between atoms: _1698  and  _1699
REMARK  513  A    between atoms: _1710  and  _1711
REMARK  514  A    between atoms: _1711  and  _1712
REMARK  515  A    between atoms: _1711  and  _1714
REMARK  516  A    between atoms: _1720  and  _1721
REMARK  517  A    between atoms: _1721  and  _1722
REMARK  518  A    between atoms: _1727  and  _1728
REMARK  519  A    between atoms: _1728  and  _1729
REMARK  520  A    between atoms: _1728  and  _1731
REMARK  521  A    between atoms: _1737  and  _1738
REMARK  522  A    between atoms: _1738  and  _1739
REMARK  523  A    between atoms: _1738  and  _1741
REMARK  524  A    between atoms: _1741  and  _1742
REMARK  525  A    between atoms: _1749  and  _1750
REMARK  526  A    between atoms: _1750  and  _1751
REMARK  527  A    between atoms: _1750  and  _1753
REMARK  528  A    between atoms: _1753  and  _1754
REMARK  529  A    between atoms: _1753  and  _1755
REMARK  530  A    between atoms: _1754  and  _1756
REMARK  531  A    between atoms: _1768  and  _1769
REMARK  532  A    between atoms: _1769  and  _1772
REMARK  533  A    between atoms: _1772  and  _1773
REMARK  534  A    between atoms: _1791  and  _1793
REMARK  535  A    between atoms: _1792  and  _1794
REMARK  536  A    between atoms: _1814  and  _1815
REMARK  537  A    between atoms: _1814  and  _1817
REMARK  538  A    between atoms: _1817  and  _1818
REMARK  539  A    between atoms: _1817  and  _1819
REMARK  540  A    between atoms: _1818  and  _1820
REMARK  541  A    between atoms: _1833  and  _1834
REMARK  542  A    between atoms: _1834  and  _1835
REMARK  543  A    between atoms: _1840  and  _1841
REMARK  544  A    between atoms: _1841  and  _1842
REMARK  545  A    between atoms: _1841  and  _1844
REMARK  546  A    between atoms: _1844  and  _1845
REMARK  547  A    between atoms: _1845  and  _1846
REMARK  548  A    between atoms: _1857  and  _1858
REMARK  549  A    between atoms: _1858  and  _1859
REMARK  550  A    between atoms: _1858  and  _1861
REMARK  551  A    between atoms: _1861  and  _1862
REMARK  552  A    between atoms: _1877  and  _1878
REMARK  553  A    between atoms: _1878  and  _1879
REMARK  554  A    between atoms: _1884  and  _1885
REMARK  555  A    between atoms: _1885  and  _1886
REMARK  556  A    between atoms: _1885  and  _1888
REMARK  557  A    between atoms: _1888  and  _1889
REMARK  558  A    between atoms: _1888  and  _1890
REMARK  559  A    between atoms: _1900  and  _1901
REMARK  560  A    between atoms: _1901  and  _1902
REMARK  561  A    between atoms: _1907  and  _1908
REMARK  562  A    between atoms: _1908  and  _1909
REMARK  563  A    between atoms: _1908  and  _1911
REMARK  564  A    between atoms: _1911  and  _1912
REMARK  565  A    between atoms: _1927  and  _1928
REMARK  566  A    between atoms: _1928  and  _1929
REMARK  567  A    between atoms: _1928  and  _1931
REMARK  568  A    between atoms: _1931  and  _1932
REMARK  569  A    between atoms: _1937  and  _1938
REMARK  570  A    between atoms: _1948  and  _1949
REMARK  571  A    between atoms: _1949  and  _1950
REMARK  572  A    between atoms: _1949  and  _1952
REMARK  573  A    between atoms: _1952  and  _1953
REMARK  574  A    between atoms: _1959  and  _1960
REMARK  575  A    between atoms: _1960  and  _1961
REMARK  576  A    between atoms: _1960  and  _1963
REMARK  577  A    between atoms: _1969  and  _1970
REMARK  578  A    between atoms: _1970  and  _1971
REMARK  579  A    between atoms: _1970  and  _1973
REMARK  580  A    between atoms: _1973  and  _1974
REMARK  581  A    between atoms: _1979  and  _1980
REMARK  582  A    between atoms: _1990  and  _1991
REMARK  583  A    between atoms: _1991  and  _1992
REMARK  584  A    between atoms: _1991  and  _1994
REMARK  585  A    between atoms: _1994  and  _1995
REMARK  586  A    between atoms: _1995  and  _1996
REMARK  587  A    between atoms: _1995  and  _1997
REMARK  588  A    between atoms: _2009  and  _2010
REMARK  589  A    between atoms: _2010  and  _2011
REMARK  590  A    between atoms: _2010  and  _2013
REMARK  591  A    between atoms: _2013  and  _2014
REMARK  592  A    between atoms: _2013  and  _2015
REMARK  593  A    between atoms: _2025  and  _2026
REMARK  594  A    between atoms: _2026  and  _2027
REMARK  595  A    between atoms: _2026  and  _2029
REMARK  596  A    between atoms: _2035  and  _2036
REMARK  597  A    between atoms: _2036  and  _2037
REMARK  598  A    between atoms: _2036  and  _2039
REMARK  599  A    between atoms: _2039  and  _2040
REMARK  600  A    between atoms: _2040  and  _2041
REMARK  601  A    between atoms: _2050  and  _2051
REMARK  602  A    between atoms: _2051  and  _2052
REMARK  603  A    between atoms: _2051  and  _2054
REMARK  604  A    between atoms: _2054  and  _2055
REMARK  605  A    between atoms: _2055  and  _2056
REMARK  606  A    between atoms: _2056  and  _2057
REMARK  607  A    between atoms: _2057  and  _2058
REMARK  608  A    between atoms: _2072  and  _2073
REMARK  609  A    between atoms: _2073  and  _2074
REMARK  610  A    between atoms: _2073  and  _2076
REMARK  611  A    between atoms: _2076  and  _2077
REMARK  612  A    between atoms: _2076  and  _2078
REMARK  613  A    between atoms: _2088  and  _2089
REMARK  614  A    between atoms: _2089  and  _2090
REMARK  615  A    between atoms: _2089  and  _2092
REMARK  616  A    between atoms: _2092  and  _2093
REMARK  617  A    between atoms: _2092  and  _2094
REMARK  618  A    between atoms: _2102  and  _2103
REMARK  619  A    between atoms: _2103  and  _2104
REMARK  620  A    between atoms: _2103  and  _2106
REMARK  621  A    between atoms: _2106  and  _2107
REMARK  622  A    between atoms: _2106  and  _2108
REMARK  623  A    between atoms: _2118  and  _2119
REMARK  624  A    between atoms: _2119  and  _2120
REMARK  625  A    between atoms: _2119  and  _2122
REMARK  626  A    between atoms: _2122  and  _2123
REMARK  627  A    between atoms: _2122  and  _2124
REMARK  628  A    between atoms: _2123  and  _2125
REMARK  629  A    between atoms: _2137  and  _2138
REMARK  630  A    between atoms: _2138  and  _2139
REMARK  631  A    between atoms: _2138  and  _2141
REMARK  632  A    between atoms: _2141  and  _2142
REMARK  633  A    between atoms: _2141  and  _2143
REMARK  634  A    between atoms: _2151  and  _2152
REMARK  635  A    between atoms: _2152  and  _2153
REMARK  636  A    between atoms: _2152  and  _2155
REMARK  637  A    between atoms: _2155  and  _2156
REMARK  638  A    between atoms: _2156  and  _2157
REMARK  639  A    between atoms: _2157  and  _2158
REMARK  640  A    between atoms: _2158  and  _2159
REMARK  641  A    between atoms: _2173  and  _2174
REMARK  642  A    between atoms: _2174  and  _2175
REMARK  643  A    between atoms: _2174  and  _2177
REMARK  644  A    between atoms: _2177  and  _2178
REMARK  645  A    between atoms: _2190  and  _2191
REMARK  646  A    between atoms: _2191  and  _2192
REMARK  647  A    between atoms: _2191  and  _2194
REMARK  648  A    between atoms: _2194  and  _2195
REMARK  649  A    between atoms: _2204  and  _2205
REMARK  650  A    between atoms: _2205  and  _2206
REMARK  651  A    between atoms: _2205  and  _2208
REMARK  652  A    between atoms: _2208  and  _2209
REMARK  653  A    between atoms: _2216  and  _2217
REMARK  654  A    between atoms: _2217  and  _2218
REMARK  655  A    between atoms: _2217  and  _2220
REMARK  656  A    between atoms: _2220  and  _2221
REMARK  657  A    between atoms: _2228  and  _2229
REMARK  658  A    between atoms: _2229  and  _2230
REMARK  659  A    between atoms: _2229  and  _2232
REMARK  660  A    between atoms: _2232  and  _2233
REMARK  661  A    between atoms: _2233  and  _2234
REMARK  662  A    between atoms: _2243  and  _2244
REMARK  663  A    between atoms: _2244  and  _2245
REMARK  664  A    between atoms: _2244  and  _2247
REMARK  665  A    between atoms: _2247  and  _2248
REMARK  666  A    between atoms: _2248  and  _2249
REMARK  667  A    between atoms: _2260  and  _2261
REMARK  668  A    between atoms: _2261  and  _2262
REMARK  669  A    between atoms: _2261  and  _2264
REMARK  670  A    between atoms: _2264  and  _2265
REMARK  671  A    between atoms: _2270  and  _2271
REMARK  672  A    between atoms: _2281  and  _2282
REMARK  673  A    between atoms: _2282  and  _2283
REMARK  674  A    between atoms: _2282  and  _2285
REMARK  675  A    between atoms: _2291  and  _2292
REMARK  676  A    between atoms: _2292  and  _2293
REMARK  677  A    between atoms: _2292  and  _2295
REMARK  678  A    between atoms: _2295  and  _2296
REMARK  679  A    between atoms: _2315  and  _2316
REMARK  680  A    between atoms: _2316  and  _2317
REMARK  681  A    between atoms: _2316  and  _2319
REMARK  682  A    between atoms: _2319  and  _2320
REMARK  683  A    between atoms: _2320  and  _2321
REMARK  684  A    between atoms: _2330  and  _2331
REMARK  685  A    between atoms: _2331  and  _2332
REMARK  686  A    between atoms: _2331  and  _2334
REMARK  687  A    between atoms: _2334  and  _2335
REMARK  688  A    between atoms: _2341  and  _2342
REMARK  689  A    between atoms: _2342  and  _2343
REMARK  690  A    between atoms: _2342  and  _2345
REMARK  691  A    between atoms: _2345  and  _2346
REMARK  692  A    between atoms: _2352  and  _2353
REMARK  693  A    between atoms: _2353  and  _2354
REMARK  694  A    between atoms: _2353  and  _2356
REMARK  695  A    between atoms: _2362  and  _2363
REMARK  696  A    between atoms: _2363  and  _2364
REMARK  697  A    between atoms: _2369  and  _2370
REMARK  698  A    between atoms: _2370  and  _2371
REMARK  699  A    between atoms: _2376  and  _2377
REMARK  700  A    between atoms: _2377  and  _2378
REMARK  701  A    between atoms: _2377  and  _2380
REMARK  702  A    between atoms: _2380  and  _2381
REMARK  703  A    between atoms: _2387  and  _2388
REMARK  704  A    between atoms: _2388  and  _2389
REMARK  705  A    between atoms: _2388  and  _2391
REMARK  706  A    between atoms: _2391  and  _2392
REMARK  707  A    between atoms: _2407  and  _2408
REMARK  708  A    between atoms: _2408  and  _2409
REMARK  709  A    between atoms: _2408  and  _2411
REMARK  710  A    between atoms: _2411  and  _2412
REMARK  711  A    between atoms: _2411  and  _2413
REMARK  712  A    between atoms: _2421  and  _2422
REMARK  713  A    between atoms: _2422  and  _2423
REMARK  714  A    between atoms: _2422  and  _2425
REMARK  715  A    between atoms: _2425  and  _2426
REMARK  716  A    between atoms: _2425  and  _2427
REMARK  717  A    between atoms: _2437  and  _2438
REMARK  718  A    between atoms: _2438  and  _2439
REMARK  719  A    between atoms: _2438  and  _2441
REMARK  720  A    between atoms: _2441  and  _2442
REMARK  721  A    between atoms: _2442  and  _2443
REMARK  722  A    between atoms: _2443  and  _2444
REMARK  723  A    between atoms: _2461  and  _2462
REMARK  724  A    between atoms: _2462  and  _2463
REMARK  725  A    between atoms: _2462  and  _2465
REMARK  726  A    between atoms: _2465  and  _2466
REMARK  727  A    between atoms: _2465  and  _2467
REMARK  728  A    between atoms: _2475  and  _2476
REMARK  729  A    between atoms: _2476  and  _2477
REMARK  730  A    between atoms: _2476  and  _2479
REMARK  731  A    between atoms: _2479  and  _2480
REMARK  732  A    between atoms: _2487  and  _2488
REMARK  733  A    between atoms: _2488  and  _2489
REMARK  734  A    between atoms: _2488  and  _2491
REMARK  735  A    between atoms: _2491  and  _2492
REMARK  736  A    between atoms: _2491  and  _2493
REMARK  737  A    between atoms: _2501  and  _2502
REMARK  738  A    between atoms: _2502  and  _2503
REMARK  739  A    between atoms: _2508  and  _2509
REMARK  740  A    between atoms: _2509  and  _2510
REMARK  741  A    between atoms: _2509  and  _2512
REMARK  742  A    between atoms: _2512  and  _2513
REMARK  743  A    between atoms: _2513  and  _2514
REMARK  744  A    between atoms: _2524  and  _2525
REMARK  745  A    between atoms: _2537  and  _2538
REMARK  746  A    between atoms: _2538  and  _2539
REMARK  747  A    between atoms: _2538  and  _2541
REMARK  748  A    between atoms: _2541  and  _2542
REMARK  749  A    between atoms: _2542  and  _2543
REMARK  750  A    between atoms: _2543  and  _2544
REMARK  751  A    between atoms: _2554  and  _2555
REMARK  752  A    between atoms: _2555  and  _2556
REMARK  753  A    between atoms: _2561  and  _2562
REMARK  754  A    between atoms: _2562  and  _2563
REMARK  755  A    between atoms: _2562  and  _2565
REMARK  756  A    between atoms: _2565  and  _2566
REMARK  757  A    between atoms: _2566  and  _2567
REMARK  758  A    between atoms: _2567  and  _2568
REMARK  759  A    between atoms: _2585  and  _2586
REMARK  760  A    between atoms: _2586  and  _2587
REMARK  761  A    between atoms: _2592  and  _2593
REMARK  762  A    between atoms: _2593  and  _2594
REMARK  763  A    between atoms: _2593  and  _2596
REMARK  764  A    between atoms: _2596  and  _2597
REMARK  765  A    between atoms: _2596  and  _2598
REMARK  766  A    between atoms: _2606  and  _2607
REMARK  767  A    between atoms: _2607  and  _2608
REMARK  768  A    between atoms: _2607  and  _2610
REMARK  769  A    between atoms: _2610  and  _2611
REMARK  770  A    between atoms: _2611  and  _2612
REMARK  771  A    between atoms: _2612  and  _2613
REMARK  772  A    between atoms: _2613  and  _2614
REMARK  773  A    between atoms: _2628  and  _2629
REMARK  774  A    between atoms: _2629  and  _2630
REMARK  775  A    between atoms: _2629  and  _2632
REMARK  776  A    between atoms: _2632  and  _2633
REMARK  777  A    between atoms: _2632  and  _2634
REMARK  778  A    between atoms: _2644  and  _2645
REMARK  779  A    between atoms: _2645  and  _2646
REMARK  780  A    between atoms: _2645  and  _2648
REMARK  781  A    between atoms: _2648  and  _2649
REMARK  782  A    between atoms: _2648  and  _2650
REMARK  783  A    between atoms: _2649  and  _2651
REMARK  784  A    between atoms: _2663  and  _2664
REMARK  785  A    between atoms: _2664  and  _2665
REMARK  786  A    between atoms: _2664  and  _2667
REMARK  787  A    between atoms: _2667  and  _2668
REMARK  788  A    between atoms: _2668  and  _2669
REMARK  789  A    between atoms: _2668  and  _2670
REMARK  790  A    between atoms: _2682  and  _2683
REMARK  791  A    between atoms: _2683  and  _2684
REMARK  792  A    between atoms: _2683  and  _2686
REMARK  793  A    between atoms: _2686  and  _2687
REMARK  794  A    between atoms: _2699  and  _2700
REMARK  795  A    between atoms: _2700  and  _2701
REMARK  796  A    between atoms: _2700  and  _2703
REMARK  797  A    between atoms: _2703  and  _2704
REMARK  798  A    between atoms: _2704  and  _2705
REMARK  799  A    between atoms: _2704  and  _2706
REMARK  800  A    between atoms: _2718  and  _2719
REMARK  801  A    between atoms: _2719  and  _2720
REMARK  802  A    between atoms: _2719  and  _2722
REMARK  803  A    between atoms: _2722  and  _2723
REMARK  804  A    between atoms: _2723  and  _2724
REMARK  805  A    between atoms: _2724  and  _2725
REMARK  806  A    between atoms: _2725  and  _2726
REMARK  807  A    between atoms: _2740  and  _2741
REMARK  808  A    between atoms: _2741  and  _2742
REMARK  809  A    between atoms: _2741  and  _2744
REMARK  810  A    between atoms: _2744  and  _2745
REMARK  811  A    between atoms: _2745  and  _2746
REMARK  812  A    between atoms: _2755  and  _2756
REMARK  813  A    between atoms: _2756  and  _2757
REMARK  814  A    between atoms: _2756  and  _2759
REMARK  815  A    between atoms: _2759  and  _2760
REMARK  816  A    between atoms: _2767  and  _2768
REMARK  817  A    between atoms: _2768  and  _2769
REMARK  818  A    between atoms: _2768  and  _2771
REMARK  819  A    between atoms: _2771  and  _2772
REMARK  820  A    between atoms: _2772  and  _2773
REMARK  821  A    between atoms: _2784  and  _2785
REMARK  822  A    between atoms: _2785  and  _2786
REMARK  823  A    between atoms: _2785  and  _2788
REMARK  824  A    between atoms: _2788  and  _2789
REMARK  825  A    between atoms: _2788  and  _2790
REMARK  826  A    between atoms: _2798  and  _2799
REMARK  827  A    between atoms: _2799  and  _2800
REMARK  828  A    between atoms: _2799  and  _2802
REMARK  829  A    between atoms: _2802  and  _2803
REMARK  830  A    between atoms: _2803  and  _2804
REMARK  831  A    between atoms: _2813  and  _2814
REMARK  832  A    between atoms: _2814  and  _2815
REMARK  833  A    between atoms: _2814  and  _2817
REMARK  834  A    between atoms: _2817  and  _2818
REMARK  835  A    between atoms: _2823  and  _2824
REMARK  836  A    between atoms: _2834  and  _2835
REMARK  837  A    between atoms: _2835  and  _2838
REMARK  838  A    between atoms: _2838  and  _2839
REMARK  839  A    between atoms: _2839  and  _2840
REMARK  840  A    between atoms: _2839  and  _2841
REMARK  841  A    between atoms: _2884  and  _2885
REMARK  842  A    between atoms: _2884  and  _2887
REMARK  843  A    between atoms: _2887  and  _2888
REMARK  844  A    between atoms: _2888  and  _2889
REMARK  845  A    between atoms: _2899  and  _2900
REMARK  846  A    between atoms: _2900  and  _2901
REMARK  847  A    between atoms: _2900  and  _2903
REMARK  848  A    between atoms: _2903  and  _2904
REMARK  849  A    between atoms: _2904  and  _2905
REMARK  850  A    between atoms: _2905  and  _2906
REMARK  851  A    between atoms: _2923  and  _2924
REMARK  852  A    between atoms: _2924  and  _2925
REMARK  853  A    between atoms: _2924  and  _2927
REMARK  854  A    between atoms: _2927  and  _2928
REMARK  855  A    between atoms: _2928  and  _2929
REMARK  856  A    between atoms: _2929  and  _2930
REMARK  857  A    between atoms: _2947  and  _2948
REMARK  858  A    between atoms: _2948  and  _2949
REMARK  859  A    between atoms: _2948  and  _2951
REMARK  860  A    between atoms: _2951  and  _2952
REMARK  861  A    between atoms: _2951  and  _2953
REMARK  862  A    between atoms: _2952  and  _2954
REMARK  863  A    between atoms: _2966  and  _2967
REMARK  864  A    between atoms: _2967  and  _2968
REMARK  865  A    between atoms: _2967  and  _2970
REMARK  866  A    between atoms: _2970  and  _2971
REMARK  867  A    between atoms: _2971  and  _2972
REMARK  868  A    between atoms: _2972  and  _2973
REMARK  869  A    between atoms: _2973  and  _2974
REMARK  870  A    between atoms: _2988  and  _2989
REMARK  871  A    between atoms: _2989  and  _2990
REMARK  872  A    between atoms: _2989  and  _2992
REMARK  873  A    between atoms: _2992  and  _2993
REMARK  874  A    between atoms: _2993  and  _2994
REMARK  875  A    between atoms: _3003  and  _3004
REMARK  876  A    between atoms: _3004  and  _3005
REMARK  877  A    between atoms: _3004  and  _3007
REMARK  878  A    between atoms: _3007  and  _3008
REMARK  879  A    between atoms: _3007  and  _3009
REMARK  880  A    between atoms: _3008  and  _3010
REMARK  881  A    between atoms: _3022  and  _3023
REMARK  882  A    between atoms: _3023  and  _3024
REMARK  883  A    between atoms: _3023  and  _3026
REMARK  884  A    between atoms: _3026  and  _3027
REMARK  885  A    between atoms: _3026  and  _3028
REMARK  886  A    between atoms: _3038  and  _3039
REMARK  887  A    between atoms: _3039  and  _3040
REMARK  888  A    between atoms: _3039  and  _3042
REMARK  889  A    between atoms: _3042  and  _3043
REMARK  890  A    between atoms: _3043  and  _3044
REMARK  891  A    between atoms: _3044  and  _3045
REMARK  892  A    between atoms: _3045  and  _3046
REMARK  893  A    between atoms: _3060  and  _3061
REMARK  894  A    between atoms: _3061  and  _3062
REMARK  895  A    between atoms: _3061  and  _3064
REMARK  896  A    between atoms: _3064  and  _3065
REMARK  897  A    between atoms: _3065  and  _3066
REMARK  898  A    between atoms: _3066  and  _3067
REMARK  899  A    between atoms: _3067  and  _3068
REMARK  900  A    between atoms: _3082  and  _3083
REMARK  901  A    between atoms: _3083  and  _3084
REMARK  902  A    between atoms: _3083  and  _3086
REMARK  903  A    between atoms: _3086  and  _3087
REMARK  904  A    between atoms: _3099  and  _3100
REMARK  905  A    between atoms: _3100  and  _3101
REMARK  906  A    between atoms: _3100  and  _3103
REMARK  907  A    between atoms: _3103  and  _3104
REMARK  908  A    between atoms: _3110  and  _3111
REMARK  909  A    between atoms: _3111  and  _3112
REMARK  910  A    between atoms: _3111  and  _3114
REMARK  911  A    between atoms: _3114  and  _3115
REMARK  912  A    between atoms: _3115  and  _3116
REMARK  913  A    between atoms: _3127  and  _3128
REMARK  914  A    between atoms: _3128  and  _3129
REMARK  915  A    between atoms: _3128  and  _3131
REMARK  916  A    between atoms: _3131  and  _3132
REMARK  917  A    between atoms: _3147  and  _3148
REMARK  918  A    between atoms: _3148  and  _3149
REMARK  919  A    between atoms: _3148  and  _3151
REMARK  920  A    between atoms: _3151  and  _3152
REMARK  921  A    between atoms: _3151  and  _3153
REMARK  922  A    between atoms: _3152  and  _3154
REMARK  923  A    between atoms: _3166  and  _3167
REMARK  924  A    between atoms: _3167  and  _3168
REMARK  925  A    between atoms: _3173  and  _3174
REMARK  926  A    between atoms: _3174  and  _3175
REMARK  927  A    between atoms: _3174  and  _3177
REMARK  928  A    between atoms: _3177  and  _3178
REMARK  929  A    between atoms: _3183  and  _3184
REMARK  930  A    between atoms: _3195  and  _3196
REMARK  931  A    between atoms: _3208  and  _3209
REMARK  932  A    between atoms: _3209  and  _3210
REMARK  933  A    between atoms: _3209  and  _3212
REMARK  934  A    between atoms: _3212  and  _3213
REMARK  935  A    between atoms: _3212  and  _3214
REMARK  936  A    between atoms: _3213  and  _3215
REMARK  937  A    between atoms: _3227  and  _3228
REMARK  938  A    between atoms: _3228  and  _3229
REMARK  939  A    between atoms: _3228  and  _3231
REMARK  940  A    between atoms: _3231  and  _3232
REMARK  941  A    between atoms: _3231  and  _3233
REMARK  942  A    between atoms: _3241  and  _3242
REMARK  943  A    between atoms: _3242  and  _3243
REMARK  944  A    between atoms: _3242  and  _3245
REMARK  945  A    between atoms: _3245  and  _3246
REMARK  946  A    between atoms: _3246  and  _3247
REMARK  947  A    between atoms: _3246  and  _3248
REMARK  948  A    between atoms: _3260  and  _3261
REMARK  949  A    between atoms: _3261  and  _3262
REMARK  950  A    between atoms: _3261  and  _3264
REMARK  951  A    between atoms: _3264  and  _3265
REMARK  952  A    between atoms: _3280  and  _3281
REMARK  953  A    between atoms: _3281  and  _3282
REMARK  954  A    between atoms: _3281  and  _3284
REMARK  955  A    between atoms: _3284  and  _3285
REMARK  956  A    between atoms: _3284  and  _3286
REMARK  957  A    between atoms: _3296  and  _3297
REMARK  958  A    between atoms: _3297  and  _3298
REMARK  959  A    between atoms: _3297  and  _3300
REMARK  960  A    between atoms: _3300  and  _3301
REMARK  961  A    between atoms: _3301  and  _3302
REMARK                            x       y       z     vdW  Elec       q    Type
REMARK                         _______ _______ _______ _____ _____    ______ ____
ROOT
ATOM      1  C   UNL     1       7.237  38.813  39.187  0.00  0.00    +0.000 C 
ENDROOT
TORSDOF 0
REMARK  Name = /Users/mlugowska/PhD/ML_residence_time_prediction/protein_files/5J20_protein.pdb
REMARK  961 active torsions:
REMARK  status: ('A' for Active; 'I' for Inactive)
REMARK    1  A    between atoms: _2  and  _3
REMARK    2  A    between atoms: _2  and  _5
REMARK    3  A    between atoms: _10  and  _11
REMARK    4  A    between atoms: _11  and  _12
REMARK    5  A    between atoms: _11  and  _14
REMARK    6  A    between atoms: _14  and  _15
REMARK    7  A    between atoms: _14  and  _16
REMARK    8  A    between atoms: _26  and  _27
REMARK    9  A    between atoms: _27  and  _28
REMARK   10  A    between atoms: _27  and  _30
REMARK   11  A    between atoms: _30  and  _31
REMARK   12  A    between atoms: _31  and  _32
REMARK   13  A    between atoms: _41  and  _42
REMARK   14  A    between atoms: _42  and  _43
REMARK   15  A    between atoms: _42  and  _45
REMARK   16  A    between atoms: _45  and  _46
REMARK   17  A    between atoms: _45  and  _47
REMARK   18  A    between atoms: _55  and  _56
REMARK   19  A    between atoms: _56  and  _57
REMARK   20  A    between atoms: _56  and  _59
REMARK   21  A    between atoms: _59  and  _60
REMARK   22  A    between atoms: _75  and  _76
REMARK   23  A    between atoms: _76  and  _77
REMARK   24  A    between atoms: _76  and  _79
REMARK   25  A    between atoms: _85  and  _86
REMARK   26  A    between atoms: _86  and  _87
REMARK   27  A    between atoms: _86  and  _89
REMARK   28  A    between atoms: _89  and  _90
REMARK   29  A    between atoms: _105  and  _106
REMARK   30  A    between atoms: _106  and  _107
REMARK   31  A    between atoms: _106  and  _109
REMARK   32  A    between atoms: _109  and  _110
REMARK   33  A    between atoms: _110  and  _111
REMARK   34  A    between atoms: _122  and  _123
REMARK   35  A    between atoms: _123  and  _124
REMARK   36  A    between atoms: _123  and  _126
REMARK   37  A    between atoms: _132  and  _133
REMARK   38  A    between atoms: _133  and  _134
REMARK   39  A    between atoms: _133  and  _136
REMARK   40  A    between atoms: _136  and  _137
REMARK   41  A    between atoms: _137  and  _138
REMARK   42  A    between atoms: _147  and  _148
REMARK   43  A    between atoms: _148  and  _149
REMARK   44  A    between atoms: _148  and  _151
REMARK   45  A    between atoms: _151  and  _152
REMARK   46  A    between atoms: _151  and  _153
REMARK   47  A    between atoms: _152  and  _154
REMARK   48  A    between atoms: _166  and  _167
REMARK   49  A    between atoms: _167  and  _168
REMARK   50  A    between atoms: _167  and  _170
REMARK   51  A    between atoms: _176  and  _177
REMARK   52  A    between atoms: _177  and  _178
REMARK   53  A    between atoms: _177  and  _180
REMARK   54  A    between atoms: _180  and  _181
REMARK   55  A    between atoms: _181  and  _182
REMARK   56  A    between atoms: _193  and  _194
REMARK   57  A    between atoms: _194  and  _195
REMARK   58  A    between atoms: _194  and  _197
REMARK   59  A    between atoms: _197  and  _198
REMARK   60  A    between atoms: _198  and  _199
REMARK   61  A    between atoms: _198  and  _200
REMARK   62  A    between atoms: _212  and  _213
REMARK   63  A    between atoms: _213  and  _214
REMARK   64  A    between atoms: _213  and  _216
REMARK   65  A    between atoms: _216  and  _217
REMARK   66  A    between atoms: _217  and  _218
REMARK   67  A    between atoms: _218  and  _219
REMARK   68  A    between atoms: _229  and  _230
REMARK   69  A    between atoms: _230  and  _231
REMARK   70  A    between atoms: _230  and  _233
REMARK   71  A    between atoms: _233  and  _234
REMARK   72  A    between atoms: _240  and  _241
REMARK   73  A    between atoms: _241  and  _242
REMARK   74  A    between atoms: _241  and  _244
REMARK   75  A    between atoms: _244  and  _245
REMARK   76  A    between atoms: _245  and  _246
REMARK   77  A    between atoms: _245  and  _247
REMARK   78  A    between atoms: _259  and  _260
REMARK   79  A    between atoms: _260  and  _261
REMARK   80  A    between atoms: _260  and  _263
REMARK   81  A    between atoms: _263  and  _264
REMARK   82  A    between atoms: _263  and  _265
REMARK   83  A    between atoms: _264  and  _266
REMARK   84  A    between atoms: _278  and  _279
REMARK   85  A    between atoms: _279  and  _280
REMARK   86  A    between atoms: _279  and  _282
REMARK   87  A    between atoms: _282  and  _283
REMARK   88  A    between atoms: _282  and  _284
REMARK   89  A    between atoms: _283  and  _285
REMARK   90  A    between atoms: _297  and  _298
REMARK   91  A    between atoms: _298  and  _299
REMARK   92  A    between atoms: _298  and  _301
REMARK   93  A    between atoms: _301  and  _302
REMARK   94  A    between atoms: _311  and  _312
REMARK   95  A    between atoms: _312  and  _313
REMARK   96  A    between atoms: _312  and  _315
REMARK   97  A    between atoms: _315  and  _316
REMARK   98  A    between atoms: _315  and  _317
REMARK   99  A    between atoms: _325  and  _326
REMARK  100  A    between atoms: _326  and  _327
REMARK  101  A    between atoms: _326  and  _329
REMARK  102  A    between atoms: _329  and  _330
REMARK  103  A    between atoms: _345  and  _346
REMARK  104  A    between atoms: _346  and  _347
REMARK  105  A    between atoms: _346  and  _349
REMARK  106  A    between atoms: _349  and  _350
REMARK  107  A    between atoms: _355  and  _356
REMARK  108  A    between atoms: _366  and  _367
REMARK  109  A    between atoms: _367  and  _368
REMARK  110  A    between atoms: _367  and  _370
REMARK  111  A    between atoms: _370  and  _371
REMARK  112  A    between atoms: _377  and  _378
REMARK  113  A    between atoms: _378  and  _379
REMARK  114  A    between atoms: _378  and  _381
REMARK  115  A    between atoms: _381  and  _382
REMARK  116  A    between atoms: _391  and  _392
REMARK  117  A    between atoms: _392  and  _393
REMARK  118  A    between atoms: _392  and  _395
REMARK  119  A    between atoms: _395  and  _396
REMARK  120  A    between atoms: _396  and  _397
REMARK  121  A    between atoms: _397  and  _398
REMARK  122  A    between atoms: _398  and  _399
REMARK  123  A    between atoms: _413  and  _414
REMARK  124  A    between atoms: _414  and  _415
REMARK  125  A    between atoms: _414  and  _417
REMARK  126  A    between atoms: _417  and  _418
REMARK  127  A    between atoms: _418  and  _419
REMARK  128  A    between atoms: _428  and  _429
REMARK  129  A    between atoms: _429  and  _430
REMARK  130  A    between atoms: _429  and  _432
REMARK  131  A    between atoms: _432  and  _433
REMARK  132  A    between atoms: _432  and  _434
REMARK  133  A    between atoms: _433  and  _435
REMARK  134  A    between atoms: _447  and  _448
REMARK  135  A    between atoms: _448  and  _449
REMARK  136  A    between atoms: _448  and  _451
REMARK  137  A    between atoms: _451  and  _452
REMARK  138  A    between atoms: _467  and  _468
REMARK  139  A    between atoms: _468  and  _469
REMARK  140  A    between atoms: _468  and  _471
REMARK  141  A    between atoms: _471  and  _472
REMARK  142  A    between atoms: _472  and  _473
REMARK  143  A    between atoms: _472  and  _474
REMARK  144  A    between atoms: _486  and  _487
REMARK  145  A    between atoms: _487  and  _488
REMARK  146  A    between atoms: _487  and  _490
REMARK  147  A    between atoms: _490  and  _491
REMARK  148  A    between atoms: _491  and  _492
REMARK  149  A    between atoms: _492  and  _493
REMARK  150  A    between atoms: _510  and  _511
REMARK  151  A    between atoms: _511  and  _512
REMARK  152  A    between atoms: _511  and  _514
REMARK  153  A    between atoms: _514  and  _515
REMARK  154  A    between atoms: _515  and  _516
REMARK  155  A    between atoms: _525  and  _526
REMARK  156  A    between atoms: _526  and  _527
REMARK  157  A    between atoms: _526  and  _529
REMARK  158  A    between atoms: _529  and  _530
REMARK  159  A    between atoms: _530  and  _531
REMARK  160  A    between atoms: _530  and  _532
REMARK  161  A    between atoms: _544  and  _545
REMARK  162  A    between atoms: _545  and  _546
REMARK  163  A    between atoms: _545  and  _548
REMARK  164  A    between atoms: _548  and  _549
REMARK  165  A    between atoms: _548  and  _550
REMARK  166  A    between atoms: _549  and  _551
REMARK  167  A    between atoms: _563  and  _564
REMARK  168  A    between atoms: _564  and  _565
REMARK  169  A    between atoms: _564  and  _567
REMARK  170  A    between atoms: _567  and  _568
REMARK  171  A    between atoms: _574  and  _575
REMARK  172  A    between atoms: _575  and  _576
REMARK  173  A    between atoms: _575  and  _578
REMARK  174  A    between atoms: _578  and  _579
REMARK  175  A    between atoms: _588  and  _589
REMARK  176  A    between atoms: _589  and  _590
REMARK  177  A    between atoms: _589  and  _592
REMARK  178  A    between atoms: _592  and  _593
REMARK  179  A    between atoms: _599  and  _600
REMARK  180  A    between atoms: _600  and  _601
REMARK  181  A    between atoms: _600  and  _603
REMARK  182  A    between atoms: _603  and  _604
REMARK  183  A    between atoms: _610  and  _611
REMARK  184  A    between atoms: _611  and  _612
REMARK  185  A    between atoms: _611  and  _614
REMARK  186  A    between atoms: _614  and  _615
REMARK  187  A    between atoms: _622  and  _623
REMARK  188  A    between atoms: _623  and  _624
REMARK  189  A    between atoms: _623  and  _626
REMARK  190  A    between atoms: _632  and  _633
REMARK  191  A    between atoms: _633  and  _634
REMARK  192  A    between atoms: _633  and  _636
REMARK  193  A    between atoms: _636  and  _637
REMARK  194  A    between atoms: _637  and  _638
REMARK  195  A    between atoms: _637  and  _639
REMARK  196  A    between atoms: _651  and  _652
REMARK  197  A    between atoms: _652  and  _653
REMARK  198  A    between atoms: _652  and  _655
REMARK  199  A    between atoms: _655  and  _656
REMARK  200  A    between atoms: _663  and  _664
REMARK  201  A    between atoms: _664  and  _665
REMARK  202  A    between atoms: _664  and  _667
REMARK  203  A    between atoms: _667  and  _668
REMARK  204  A    between atoms: _668  and  _669
REMARK  205  A    between atoms: _669  and  _670
REMARK  206  A    between atoms: _670  and  _671
REMARK  207  A    between atoms: _685  and  _686
REMARK  208  A    between atoms: _686  and  _687
REMARK  209  A    between atoms: _686  and  _689
REMARK  210  A    between atoms: _689  and  _690
REMARK  211  A    between atoms: _689  and  _691
REMARK  212  A    between atoms: _690  and  _692
REMARK  213  A    between atoms: _704  and  _705
REMARK  214  A    between atoms: _705  and  _706
REMARK  215  A    between atoms: _705  and  _708
REMARK  216  A    between atoms: _708  and  _709
REMARK  217  A    between atoms: _709  and  _710
REMARK  218  A    between atoms: _710  and  _711
REMARK  219  A    between atoms: _728  and  _729
REMARK  220  A    between atoms: _729  and  _730
REMARK  221  A    between atoms: _729  and  _732
REMARK  222  A    between atoms: _732  and  _733
REMARK  223  A    between atoms: _738  and  _739
REMARK  224  A    between atoms: _749  and  _750
REMARK  225  A    between atoms: _750  and  _751
REMARK  226  A    between atoms: _750  and  _753
REMARK  227  A    between atoms: _753  and  _754
REMARK  228  A    between atoms: _754  and  _755
REMARK  229  A    between atoms: _764  and  _765
REMARK  230  A    between atoms: _765  and  _766
REMARK  231  A    between atoms: _765  and  _768
REMARK  232  A    between atoms: _772  and  _773
REMARK  233  A    between atoms: _773  and  _774
REMARK  234  A    between atoms: _773  and  _776
REMARK  235  A    between atoms: _776  and  _777
REMARK  236  A    between atoms: _777  and  _778
REMARK  237  A    between atoms: _777  and  _779
REMARK  238  A    between atoms: _791  and  _792
REMARK  239  A    between atoms: _792  and  _793
REMARK  240  A    between atoms: _792  and  _795
REMARK  241  A    between atoms: _795  and  _796
REMARK  242  A    between atoms: _795  and  _797
REMARK  243  A    between atoms: _805  and  _806
REMARK  244  A    between atoms: _806  and  _807
REMARK  245  A    between atoms: _806  and  _809
REMARK  246  A    between atoms: _809  and  _810
REMARK  247  A    between atoms: _818  and  _819
REMARK  248  A    between atoms: _831  and  _832
REMARK  249  A    between atoms: _832  and  _833
REMARK  250  A    between atoms: _832  and  _835
REMARK  251  A    between atoms: _835  and  _836
REMARK  252  A    between atoms: _842  and  _843
REMARK  253  A    between atoms: _843  and  _844
REMARK  254  A    between atoms: _843  and  _846
REMARK  255  A    between atoms: _846  and  _847
REMARK  256  A    between atoms: _847  and  _848
REMARK  257  A    between atoms: _848  and  _849
REMARK  258  A    between atoms: _849  and  _850
REMARK  259  A    between atoms: _864  and  _865
REMARK  260  A    between atoms: _865  and  _866
REMARK  261  A    between atoms: _865  and  _868
REMARK  262  A    between atoms: _868  and  _869
REMARK  263  A    between atoms: _869  and  _870
REMARK  264  A    between atoms: _869  and  _871
REMARK  265  A    between atoms: _883  and  _884
REMARK  266  A    between atoms: _884  and  _885
REMARK  267  A    between atoms: _884  and  _887
REMARK  268  A    between atoms: _887  and  _888
REMARK  269  A    between atoms: _895  and  _896
REMARK  270  A    between atoms: _896  and  _897
REMARK  271  A    between atoms: _896  and  _899
REMARK  272  A    between atoms: _899  and  _900
REMARK  273  A    between atoms: _906  and  _907
REMARK  274  A    between atoms: _907  and  _908
REMARK  275  A    between atoms: _913  and  _914
REMARK  276  A    between atoms: _914  and  _915
REMARK  277  A    between atoms: _914  and  _917
REMARK  278  A    between atoms: _917  and  _918
REMARK  279  A    between atoms: _918  and  _919
REMARK  280  A    between atoms: _919  and  _920
REMARK  281  A    between atoms: _920  and  _921
REMARK  282  A    between atoms: _935  and  _936
REMARK  283  A    between atoms: _936  and  _937
REMARK  284  A    between atoms: _936  and  _939
REMARK  285  A    between atoms: _939  and  _940
REMARK  286  A    between atoms: _940  and  _941
REMARK  287  A    between atoms: _950  and  _951
REMARK  288  A    between atoms: _951  and  _952
REMARK  289  A    between atoms: _951  and  _954
REMARK  290  A    between atoms: _954  and  _955
REMARK  291  A    between atoms: _955  and  _956
REMARK  292  A    between atoms: _955  and  _957
REMARK  293  A    between atoms: _969  and  _970
REMARK  294  A    between atoms: _970  and  _971
REMARK  295  A    between atoms: _970  and  _973
REMARK  296  A    between atoms: _973  and  _974
REMARK  297  A    between atoms: _986  and  _987
REMARK  298  A    between atoms: _987  and  _988
REMARK  299  A    between atoms: _987  and  _990
REMARK  300  A    between atoms: _990  and  _991
REMARK  301  A    between atoms: _990  and  _992
REMARK  302  A    between atoms: _991  and  _993
REMARK  303  A    between atoms: _1005  and  _1006
REMARK  304  A    between atoms: _1006  and  _1007
REMARK  305  A    between atoms: _1006  and  _1009
REMARK  306  A    between atoms: _1009  and  _1010
REMARK  307  A    between atoms: _1019  and  _1020
REMARK  308  A    between atoms: _1020  and  _1021
REMARK  309  A    between atoms: _1020  and  _1023
REMARK  310  A    between atoms: _1023  and  _1024
REMARK  311  A    between atoms: _1024  and  _1025
REMARK  312  A    between atoms: _1024  and  _1026
REMARK  313  A    between atoms: _1038  and  _1039
REMARK  314  A    between atoms: _1039  and  _1040
REMARK  315  A    between atoms: _1039  and  _1042
REMARK  316  A    between atoms: _1042  and  _1043
REMARK  317  A    between atoms: _1042  and  _1044
REMARK  318  A    between atoms: _1043  and  _1045
REMARK  319  A    between atoms: _1058  and  _1059
REMARK  320  A    between atoms: _1071  and  _1072
REMARK  321  A    between atoms: _1072  and  _1073
REMARK  322  A    between atoms: _1072  and  _1075
REMARK  323  A    between atoms: _1075  and  _1076
REMARK  324  A    between atoms: _1085  and  _1086
REMARK  325  A    between atoms: _1086  and  _1087
REMARK  326  A    between atoms: _1086  and  _1089
REMARK  327  A    between atoms: _1089  and  _1090
REMARK  328  A    between atoms: _1090  and  _1091
REMARK  329  A    between atoms: _1091  and  _1092
REMARK  330  A    between atoms: _1092  and  _1093
REMARK  331  A    between atoms: _1107  and  _1108
REMARK  332  A    between atoms: _1108  and  _1109
REMARK  333  A    between atoms: _1108  and  _1111
REMARK  334  A    between atoms: _1111  and  _1112
REMARK  335  A    between atoms: _1112  and  _1113
REMARK  336  A    between atoms: _1124  and  _1125
REMARK  337  A    between atoms: _1125  and  _1126
REMARK  338  A    between atoms: _1125  and  _1128
REMARK  339  A    between atoms: _1128  and  _1129
REMARK  340  A    between atoms: _1136  and  _1137
REMARK  341  A    between atoms: _1137  and  _1138
REMARK  342  A    between atoms: _1137  and  _1140
REMARK  343  A    between atoms: _1140  and  _1141
REMARK  344  A    between atoms: _1141  and  _1142
REMARK  345  A    between atoms: _1142  and  _1143
REMARK  346  A    between atoms: _1160  and  _1161
REMARK  347  A    between atoms: _1161  and  _1162
REMARK  348  A    between atoms: _1161  and  _1164
REMARK  349  A    between atoms: _1164  and  _1165
REMARK  350  A    between atoms: _1164  and  _1166
REMARK  351  A    between atoms: _1174  and  _1175
REMARK  352  A    between atoms: _1175  and  _1176
REMARK  353  A    between atoms: _1175  and  _1178
REMARK  354  A    between atoms: _1178  and  _1179
REMARK  355  A    between atoms: _1179  and  _1180
REMARK  356  A    between atoms: _1179  and  _1181
REMARK  357  A    between atoms: _1193  and  _1194
REMARK  358  A    between atoms: _1194  and  _1195
REMARK  359  A    between atoms: _1194  and  _1197
REMARK  360  A    between atoms: _1197  and  _1198
REMARK  361  A    between atoms: _1197  and  _1199
REMARK  362  A    between atoms: _1207  and  _1208
REMARK  363  A    between atoms: _1208  and  _1209
REMARK  364  A    between atoms: _1208  and  _1211
REMARK  365  A    between atoms: _1211  and  _1212
REMARK  366  A    between atoms: _1211  and  _1213
REMARK  367  A    between atoms: _1212  and  _1214
REMARK  368  A    between atoms: _1226  and  _1227
REMARK  369  A    between atoms: _1227  and  _1228
REMARK  370  A    between atoms: _1227  and  _1230
REMARK  371  A    between atoms: _1230  and  _1231
REMARK  372  A    between atoms: _1230  and  _1232
REMARK  373  A    between atoms: _1242  and  _1243
REMARK  374  A    between atoms: _1243  and  _1244
REMARK  375  A    between atoms: _1243  and  _1246
REMARK  376  A    between atoms: _1246  and  _1247
REMARK  377  A    between atoms: _1254  and  _1255
REMARK  378  A    between atoms: _1255  and  _1256
REMARK  379  A    between atoms: _1255  and  _1258
REMARK  380  A    between atoms: _1258  and  _1259
REMARK  381  A    between atoms: _1258  and  _1260
REMARK  382  A    between atoms: _1268  and  _1269
REMARK  383  A    between atoms: _1269  and  _1270
REMARK  384  A    between atoms: _1275  and  _1276
REMARK  385  A    between atoms: _1276  and  _1277
REMARK  386  A    between atoms: _1276  and  _1279
REMARK  387  A    between atoms: _1279  and  _1280
REMARK  388  A    between atoms: _1279  and  _1281
REMARK  389  A    between atoms: _1280  and  _1282
REMARK  390  A    between atoms: _1294  and  _1295
REMARK  391  A    between atoms: _1295  and  _1296
REMARK  392  A    between atoms: _1301  and  _1302
REMARK  393  A    between atoms: _1302  and  _1303
REMARK  394  A    between atoms: _1302  and  _1305
REMARK  395  A    between atoms: _1305  and  _1306
REMARK  396  A    between atoms: _1306  and  _1307
REMARK  397  A    between atoms: _1307  and  _1308
REMARK  398  A    between atoms: _1318  and  _1319
REMARK  399  A    between atoms: _1319  and  _1320
REMARK  400  A    between atoms: _1319  and  _1322
REMARK  401  A    between atoms: _1322  and  _1323
REMARK  402  A    between atoms: _1322  and  _1324
REMARK  403  A    between atoms: _1332  and  _1333
REMARK  404  A    between atoms: _1333  and  _1334
REMARK  405  A    between atoms: _1333  and  _1336
REMARK  406  A    between atoms: _1336  and  _1337
REMARK  407  A    between atoms: _1337  and  _1338
REMARK  408  A    between atoms: _1338  and  _1339
REMARK  409  A    between atoms: _1339  and  _1340
REMARK  410  A    between atoms: _1354  and  _1355
REMARK  411  A    between atoms: _1355  and  _1356
REMARK  412  A    between atoms: _1355  and  _1358
REMARK  413  A    between atoms: _1364  and  _1365
REMARK  414  A    between atoms: _1365  and  _1366
REMARK  415  A    between atoms: _1365  and  _1368
REMARK  416  A    between atoms: _1368  and  _1369
REMARK  417  A    between atoms: _1376  and  _1377
REMARK  418  A    between atoms: _1377  and  _1378
REMARK  419  A    between atoms: _1377  and  _1380
REMARK  420  A    between atoms: _1380  and  _1381
REMARK  421  A    between atoms: _1381  and  _1382
REMARK  422  A    between atoms: _1381  and  _1383
REMARK  423  A    between atoms: _1395  and  _1396
REMARK  424  A    between atoms: _1396  and  _1399
REMARK  425  A    between atoms: _1399  and  _1400
REMARK  426  A    between atoms: _1399  and  _1401
REMARK  427  A    between atoms: _1400  and  _1402
REMARK  428  A    between atoms: _1422  and  _1425
REMARK  429  A    between atoms: _1424  and  _1428
REMARK  430  A    between atoms: _1425  and  _1427
REMARK  431  A    between atoms: _1443  and  _1444
REMARK  432  A    between atoms: _1443  and  _1446
REMARK  433  A    between atoms: _1446  and  _1447
REMARK  434  A    between atoms: _1457  and  _1458
REMARK  435  A    between atoms: _1458  and  _1459
REMARK  436  A    between atoms: _1458  and  _1461
REMARK  437  A    between atoms: _1461  and  _1462
REMARK  438  A    between atoms: _1462  and  _1463
REMARK  439  A    between atoms: _1462  and  _1464
REMARK  440  A    between atoms: _1476  and  _1477
REMARK  441  A    between atoms: _1477  and  _1478
REMARK  442  A    between atoms: _1483  and  _1484
REMARK  443  A    between atoms: _1484  and  _1485
REMARK  444  A    between atoms: _1484  and  _1487
REMARK  445  A    between atoms: _1487  and  _1488
REMARK  446  A    between atoms: _1487  and  _1489
REMARK  447  A    between atoms: _1497  and  _1498
REMARK  448  A    between atoms: _1498  and  _1499
REMARK  449  A    between atoms: _1498  and  _1501
REMARK  450  A    between atoms: _1501  and  _1502
REMARK  451  A    between atoms: _1501  and  _1503
REMARK  452  A    between atoms: _1502  and  _1504
REMARK  453  A    between atoms: _1516  and  _1517
REMARK  454  A    between atoms: _1517  and  _1518
REMARK  455  A    between atoms: _1517  and  _1520
REMARK  456  A    between atoms: _1526  and  _1527
REMARK  457  A    between atoms: _1527  and  _1528
REMARK  458  A    between atoms: _1527  and  _1530
REMARK  459  A    between atoms: _1530  and  _1531
REMARK  460  A    between atoms: _1531  and  _1532
REMARK  461  A    between atoms: _1532  and  _1533
REMARK  462  A    between atoms: _1533  and  _1534
REMARK  463  A    between atoms: _1548  and  _1549
REMARK  464  A    between atoms: _1549  and  _1550
REMARK  465  A    between atoms: _1549  and  _1552
REMARK  466  A    between atoms: _1552  and  _1553
REMARK  467  A    between atoms: _1559  and  _1560
REMARK  468  A    between atoms: _1560  and  _1561
REMARK  469  A    between atoms: _1566  and  _1567
REMARK  470  A    between atoms: _1567  and  _1568
REMARK  471  A    between atoms: _1567  and  _1570
REMARK  472  A    between atoms: _1570  and  _1571
REMARK  473  A    between atoms: _1570  and  _1572
REMARK  474  A    between atoms: _1580  and  _1581
REMARK  475  A    between atoms: _1581  and  _1582
REMARK  476  A    between atoms: _1581  and  _1584
REMARK  477  A    between atoms: _1584  and  _1585
REMARK  478  A    between atoms: _1585  and  _1586
REMARK  479  A    between atoms: _1586  and  _1587
REMARK  480  A    between atoms: _1587  and  _1588
REMARK  481  A    between atoms: _1602  and  _1603
REMARK  482  A    between atoms: _1603  and  _1604
REMARK  483  A    between atoms: _1603  and  _1606
REMARK  484  A    between atoms: _1612  and  _1613
REMARK  485  A    between atoms: _1613  and  _1614
REMARK  486  A    between atoms: _1613  and  _1616
REMARK  487  A    between atoms: _1616  and  _1617
REMARK  488  A    between atoms: _1632  and  _1633
REMARK  489  A    between atoms: _1633  and  _1634
REMARK  490  A    between atoms: _1633  and  _1636
REMARK  491  A    between atoms: _1636  and  _1637
REMARK  492  A    between atoms: _1637  and  _1638
REMARK  493  A    between atoms: _1638  and  _1639
REMARK  494  A    between atoms: _1649  and  _1650
REMARK  495  A    between atoms: _1650  and  _1651
REMARK  496  A    between atoms: _1650  and  _1653
REMARK  497  A    between atoms: _1653  and  _1654
REMARK  498  A    between atoms: _1654  and  _1655
REMARK  499  A    between atoms: _1664  and  _1665
REMARK  500  A    between atoms: _1665  and  _1666
REMARK  501  A    between atoms: _1665  and  _1668
REMARK  502  A    between atoms: _1674  and  _1675
REMARK  503  A    between atoms: _1675  and  _1676
REMARK  504  A    between atoms: _1675  and  _1678
REMARK  505  A    between atoms: _1678  and  _1679
REMARK  506  A    between atoms: _1679  and  _1680
REMARK  507  A    between atoms: _1679  and  _1681
REMARK  508  A    between atoms: _1693  and  _1694
REMARK  509  A    between atoms: _1694  and  _1695
REMARK  510  A    between atoms: _1694  and  _1697
REMARK  511  A    between atoms: _1697  and  _1698
REMARK  512  A    between atoms: _1698  and  _1699
REMARK  513  A    between atoms: _1710  and  _1711
REMARK  514  A    between atoms: _1711  and  _1712
REMARK  515  A    between atoms: _1711  and  _1714
REMARK  516  A    between atoms: _1720  and  _1721
REMARK  517  A    between atoms: _1721  and  _1722
REMARK  518  A    between atoms: _1727  and  _1728
REMARK  519  A    between atoms: _1728  and  _1729
REMARK  520  A    between atoms: _1728  and  _1731
REMARK  521  A    between atoms: _1737  and  _1738
REMARK  522  A    between atoms: _1738  and  _1739
REMARK  523  A    between atoms: _1738  and  _1741
REMARK  524  A    between atoms: _1741  and  _1742
REMARK  525  A    between atoms: _1749  and  _1750
REMARK  526  A    between atoms: _1750  and  _1751
REMARK  527  A    between atoms: _1750  and  _1753
REMARK  528  A    between atoms: _1753  and  _1754
REMARK  529  A    between atoms: _1753  and  _1755
REMARK  530  A    between atoms: _1754  and  _1756
REMARK  531  A    between atoms: _1768  and  _1769
REMARK  532  A    between atoms: _1769  and  _1772
REMARK  533  A    between atoms: _1772  and  _1773
REMARK  534  A    between atoms: _1791  and  _1793
REMARK  535  A    between atoms: _1792  and  _1794
REMARK  536  A    between atoms: _1814  and  _1815
REMARK  537  A    between atoms: _1814  and  _1817
REMARK  538  A    between atoms: _1817  and  _1818
REMARK  539  A    between atoms: _1817  and  _1819
REMARK  540  A    between atoms: _1818  and  _1820
REMARK  541  A    between atoms: _1833  and  _1834
REMARK  542  A    between atoms: _1834  and  _1835
REMARK  543  A    between atoms: _1840  and  _1841
REMARK  544  A    between atoms: _1841  and  _1842
REMARK  545  A    between atoms: _1841  and  _1844
REMARK  546  A    between atoms: _1844  and  _1845
REMARK  547  A    between atoms: _1845  and  _1846
REMARK  548  A    between atoms: _1857  and  _1858
REMARK  549  A    between atoms: _1858  and  _1859
REMARK  550  A    between atoms: _1858  and  _1861
REMARK  551  A    between atoms: _1861  and  _1862
REMARK  552  A    between atoms: _1877  and  _1878
REMARK  553  A    between atoms: _1878  and  _1879
REMARK  554  A    between atoms: _1884  and  _1885
REMARK  555  A    between atoms: _1885  and  _1886
REMARK  556  A    between atoms: _1885  and  _1888
REMARK  557  A    between atoms: _1888  and  _1889
REMARK  558  A    between atoms: _1888  and  _1890
REMARK  559  A    between atoms: _1900  and  _1901
REMARK  560  A    between atoms: _1901  and  _1902
REMARK  561  A    between atoms: _1907  and  _1908
REMARK  562  A    between atoms: _1908  and  _1909
REMARK  563  A    between atoms: _1908  and  _1911
REMARK  564  A    between atoms: _1911  and  _1912
REMARK  565  A    between atoms: _1927  and  _1928
REMARK  566  A    between atoms: _1928  and  _1929
REMARK  567  A    between atoms: _1928  and  _1931
REMARK  568  A    between atoms: _1931  and  _1932
REMARK  569  A    between atoms: _1937  and  _1938
REMARK  570  A    between atoms: _1948  and  _1949
REMARK  571  A    between atoms: _1949  and  _1950
REMARK  572  A    between atoms: _1949  and  _1952
REMARK  573  A    between atoms: _1952  and  _1953
REMARK  574  A    between atoms: _1959  and  _1960
REMARK  575  A    between atoms: _1960  and  _1961
REMARK  576  A    between atoms: _1960  and  _1963
REMARK  577  A    between atoms: _1969  and  _1970
REMARK  578  A    between atoms: _1970  and  _1971
REMARK  579  A    between atoms: _1970  and  _1973
REMARK  580  A    between atoms: _1973  and  _1974
REMARK  581  A    between atoms: _1979  and  _1980
REMARK  582  A    between atoms: _1990  and  _1991
REMARK  583  A    between atoms: _1991  and  _1992
REMARK  584  A    between atoms: _1991  and  _1994
REMARK  585  A    between atoms: _1994  and  _1995
REMARK  586  A    between atoms: _1995  and  _1996
REMARK  587  A    between atoms: _1995  and  _1997
REMARK  588  A    between atoms: _2009  and  _2010
REMARK  589  A    between atoms: _2010  and  _2011
REMARK  590  A    between atoms: _2010  and  _2013
REMARK  591  A    between atoms: _2013  and  _2014
REMARK  592  A    between atoms: _2013  and  _2015
REMARK  593  A    between atoms: _2025  and  _2026
REMARK  594  A    between atoms: _2026  and  _2027
REMARK  595  A    between atoms: _2026  and  _2029
REMARK  596  A    between atoms: _2035  and  _2036
REMARK  597  A    between atoms: _2036  and  _2037
REMARK  598  A    between atoms: _2036  and  _2039
REMARK  599  A    between atoms: _2039  and  _2040
REMARK  600  A    between atoms: _2040  and  _2041
REMARK  601  A    between atoms: _2050  and  _2051
REMARK  602  A    between atoms: _2051  and  _2052
REMARK  603  A    between atoms: _2051  and  _2054
REMARK  604  A    between atoms: _2054  and  _2055
REMARK  605  A    between atoms: _2055  and  _2056
REMARK  606  A    between atoms: _2056  and  _2057
REMARK  607  A    between atoms: _2057  and  _2058
REMARK  608  A    between atoms: _2072  and  _2073
REMARK  609  A    between atoms: _2073  and  _2074
REMARK  610  A    between atoms: _2073  and  _2076
REMARK  611  A    between atoms: _2076  and  _2077
REMARK  612  A    between atoms: _2076  and  _2078
REMARK  613  A    between atoms: _2088  and  _2089
REMARK  614  A    between atoms: _2089  and  _2090
REMARK  615  A    between atoms: _2089  and  _2092
REMARK  616  A    between atoms: _2092  and  _2093
REMARK  617  A    between atoms: _2092  and  _2094
REMARK  618  A    between atoms: _2102  and  _2103
REMARK  619  A    between atoms: _2103  and  _2104
REMARK  620  A    between atoms: _2103  and  _2106
REMARK  621  A    between atoms: _2106  and  _2107
REMARK  622  A    between atoms: _2106  and  _2108
REMARK  623  A    between atoms: _2118  and  _2119
REMARK  624  A    between atoms: _2119  and  _2120
REMARK  625  A    between atoms: _2119  and  _2122
REMARK  626  A    between atoms: _2122  and  _2123
REMARK  627  A    between atoms: _2122  and  _2124
REMARK  628  A    between atoms: _2123  and  _2125
REMARK  629  A    between atoms: _2137  and  _2138
REMARK  630  A    between atoms: _2138  and  _2139
REMARK  631  A    between atoms: _2138  and  _2141
REMARK  632  A    between atoms: _2141  and  _2142
REMARK  633  A    between atoms: _2141  and  _2143
REMARK  634  A    between atoms: _2151  and  _2152
REMARK  635  A    between atoms: _2152  and  _2153
REMARK  636  A    between atoms: _2152  and  _2155
REMARK  637  A    between atoms: _2155  and  _2156
REMARK  638  A    between atoms: _2156  and  _2157
REMARK  639  A    between atoms: _2157  and  _2158
REMARK  640  A    between atoms: _2158  and  _2159
REMARK  641  A    between atoms: _2173  and  _2174
REMARK  642  A    between atoms: _2174  and  _2175
REMARK  643  A    between atoms: _2174  and  _2177
REMARK  644  A    between atoms: _2177  and  _2178
REMARK  645  A    between atoms: _2190  and  _2191
REMARK  646  A    between atoms: _2191  and  _2192
REMARK  647  A    between atoms: _2191  and  _2194
REMARK  648  A    between atoms: _2194  and  _2195
REMARK  649  A    between atoms: _2204  and  _2205
REMARK  650  A    between atoms: _2205  and  _2206
REMARK  651  A    between atoms: _2205  and  _2208
REMARK  652  A    between atoms: _2208  and  _2209
REMARK  653  A    between atoms: _2216  and  _2217
REMARK  654  A    between atoms: _2217  and  _2218
REMARK  655  A    between atoms: _2217  and  _2220
REMARK  656  A    between atoms: _2220  and  _2221
REMARK  657  A    between atoms: _2228  and  _2229
REMARK  658  A    between atoms: _2229  and  _2230
REMARK  659  A    between atoms: _2229  and  _2232
REMARK  660  A    between atoms: _2232  and  _2233
REMARK  661  A    between atoms: _2233  and  _2234
REMARK  662  A    between atoms: _2243  and  _2244
REMARK  663  A    between atoms: _2244  and  _2245
REMARK  664  A    between atoms: _2244  and  _2247
REMARK  665  A    between atoms: _2247  and  _2248
REMARK  666  A    between atoms: _2248  and  _2249
REMARK  667  A    between atoms: _2260  and  _2261
REMARK  668  A    between atoms: _2261  and  _2262
REMARK  669  A    between atoms: _2261  and  _2264
REMARK  670  A    between atoms: _2264  and  _2265
REMARK  671  A    between atoms: _2270  and  _2271
REMARK  672  A    between atoms: _2281  and  _2282
REMARK  673  A    between atoms: _2282  and  _2283
REMARK  674  A    between atoms: _2282  and  _2285
REMARK  675  A    between atoms: _2291  and  _2292
REMARK  676  A    between atoms: _2292  and  _2293
REMARK  677  A    between atoms: _2292  and  _2295
REMARK  678  A    between atoms: _2295  and  _2296
REMARK  679  A    between atoms: _2315  and  _2316
REMARK  680  A    between atoms: _2316  and  _2317
REMARK  681  A    between atoms: _2316  and  _2319
REMARK  682  A    between atoms: _2319  and  _2320
REMARK  683  A    between atoms: _2320  and  _2321
REMARK  684  A    between atoms: _2330  and  _2331
REMARK  685  A    between atoms: _2331  and  _2332
REMARK  686  A    between atoms: _2331  and  _2334
REMARK  687  A    between atoms: _2334  and  _2335
REMARK  688  A    between atoms: _2341  and  _2342
REMARK  689  A    between atoms: _2342  and  _2343
REMARK  690  A    between atoms: _2342  and  _2345
REMARK  691  A    between atoms: _2345  and  _2346
REMARK  692  A    between atoms: _2352  and  _2353
REMARK  693  A    between atoms: _2353  and  _2354
REMARK  694  A    between atoms: _2353  and  _2356
REMARK  695  A    between atoms: _2362  and  _2363
REMARK  696  A    between atoms: _2363  and  _2364
REMARK  697  A    between atoms: _2369  and  _2370
REMARK  698  A    between atoms: _2370  and  _2371
REMARK  699  A    between atoms: _2376  and  _2377
REMARK  700  A    between atoms: _2377  and  _2378
REMARK  701  A    between atoms: _2377  and  _2380
REMARK  702  A    between atoms: _2380  and  _2381
REMARK  703  A    between atoms: _2387  and  _2388
REMARK  704  A    between atoms: _2388  and  _2389
REMARK  705  A    between atoms: _2388  and  _2391
REMARK  706  A    between atoms: _2391  and  _2392
REMARK  707  A    between atoms: _2407  and  _2408
REMARK  708  A    between atoms: _2408  and  _2409
REMARK  709  A    between atoms: _2408  and  _2411
REMARK  710  A    between atoms: _2411  and  _2412
REMARK  711  A    between atoms: _2411  and  _2413
REMARK  712  A    between atoms: _2421  and  _2422
REMARK  713  A    between atoms: _2422  and  _2423
REMARK  714  A    between atoms: _2422  and  _2425
REMARK  715  A    between atoms: _2425  and  _2426
REMARK  716  A    between atoms: _2425  and  _2427
REMARK  717  A    between atoms: _2437  and  _2438
REMARK  718  A    between atoms: _2438  and  _2439
REMARK  719  A    between atoms: _2438  and  _2441
REMARK  720  A    between atoms: _2441  and  _2442
REMARK  721  A    between atoms: _2442  and  _2443
REMARK  722  A    between atoms: _2443  and  _2444
REMARK  723  A    between atoms: _2461  and  _2462
REMARK  724  A    between atoms: _2462  and  _2463
REMARK  725  A    between atoms: _2462  and  _2465
REMARK  726  A    between atoms: _2465  and  _2466
REMARK  727  A    between atoms: _2465  and  _2467
REMARK  728  A    between atoms: _2475  and  _2476
REMARK  729  A    between atoms: _2476  and  _2477
REMARK  730  A    between atoms: _2476  and  _2479
REMARK  731  A    between atoms: _2479  and  _2480
REMARK  732  A    between atoms: _2487  and  _2488
REMARK  733  A    between atoms: _2488  and  _2489
REMARK  734  A    between atoms: _2488  and  _2491
REMARK  735  A    between atoms: _2491  and  _2492
REMARK  736  A    between atoms: _2491  and  _2493
REMARK  737  A    between atoms: _2501  and  _2502
REMARK  738  A    between atoms: _2502  and  _2503
REMARK  739  A    between atoms: _2508  and  _2509
REMARK  740  A    between atoms: _2509  and  _2510
REMARK  741  A    between atoms: _2509  and  _2512
REMARK  742  A    between atoms: _2512  and  _2513
REMARK  743  A    between atoms: _2513  and  _2514
REMARK  744  A    between atoms: _2524  and  _2525
REMARK  745  A    between atoms: _2537  and  _2538
REMARK  746  A    between atoms: _2538  and  _2539
REMARK  747  A    between atoms: _2538  and  _2541
REMARK  748  A    between atoms: _2541  and  _2542
REMARK  749  A    between atoms: _2542  and  _2543
REMARK  750  A    between atoms: _2543  and  _2544
REMARK  751  A    between atoms: _2554  and  _2555
REMARK  752  A    between atoms: _2555  and  _2556
REMARK  753  A    between atoms: _2561  and  _2562
REMARK  754  A    between atoms: _2562  and  _2563
REMARK  755  A    between atoms: _2562  and  _2565
REMARK  756  A    between atoms: _2565  and  _2566
REMARK  757  A    between atoms: _2566  and  _2567
REMARK  758  A    between atoms: _2567  and  _2568
REMARK  759  A    between atoms: _2585  and  _2586
REMARK  760  A    between atoms: _2586  and  _2587
REMARK  761  A    between atoms: _2592  and  _2593
REMARK  762  A    between atoms: _2593  and  _2594
REMARK  763  A    between atoms: _2593  and  _2596
REMARK  764  A    between atoms: _2596  and  _2597
REMARK  765  A    between atoms: _2596  and  _2598
REMARK  766  A    between atoms: _2606  and  _2607
REMARK  767  A    between atoms: _2607  and  _2608
REMARK  768  A    between atoms: _2607  and  _2610
REMARK  769  A    between atoms: _2610  and  _2611
REMARK  770  A    between atoms: _2611  and  _2612
REMARK  771  A    between atoms: _2612  and  _2613
REMARK  772  A    between atoms: _2613  and  _2614
REMARK  773  A    between atoms: _2628  and  _2629
REMARK  774  A    between atoms: _2629  and  _2630
REMARK  775  A    between atoms: _2629  and  _2632
REMARK  776  A    between atoms: _2632  and  _2633
REMARK  777  A    between atoms: _2632  and  _2634
REMARK  778  A    between atoms: _2644  and  _2645
REMARK  779  A    between atoms: _2645  and  _2646
REMARK  780  A    between atoms: _2645  and  _2648
REMARK  781  A    between atoms: _2648  and  _2649
REMARK  782  A    between atoms: _2648  and  _2650
REMARK  783  A    between atoms: _2649  and  _2651
REMARK  784  A    between atoms: _2663  and  _2664
REMARK  785  A    between atoms: _2664  and  _2665
REMARK  786  A    between atoms: _2664  and  _2667
REMARK  787  A    between atoms: _2667  and  _2668
REMARK  788  A    between atoms: _2668  and  _2669
REMARK  789  A    between atoms: _2668  and  _2670
REMARK  790  A    between atoms: _2682  and  _2683
REMARK  791  A    between atoms: _2683  and  _2684
REMARK  792  A    between atoms: _2683  and  _2686
REMARK  793  A    between atoms: _2686  and  _2687
REMARK  794  A    between atoms: _2699  and  _2700
REMARK  795  A    between atoms: _2700  and  _2701
REMARK  796  A    between atoms: _2700  and  _2703
REMARK  797  A    between atoms: _2703  and  _2704
REMARK  798  A    between atoms: _2704  and  _2705
REMARK  799  A    between atoms: _2704  and  _2706
REMARK  800  A    between atoms: _2718  and  _2719
REMARK  801  A    between atoms: _2719  and  _2720
REMARK  802  A    between atoms: _2719  and  _2722
REMARK  803  A    between atoms: _2722  and  _2723
REMARK  804  A    between atoms: _2723  and  _2724
REMARK  805  A    between atoms: _2724  and  _2725
REMARK  806  A    between atoms: _2725  and  _2726
REMARK  807  A    between atoms: _2740  and  _2741
REMARK  808  A    between atoms: _2741  and  _2742
REMARK  809  A    between atoms: _2741  and  _2744
REMARK  810  A    between atoms: _2744  and  _2745
REMARK  811  A    between atoms: _2745  and  _2746
REMARK  812  A    between atoms: _2755  and  _2756
REMARK  813  A    between atoms: _2756  and  _2757
REMARK  814  A    between atoms: _2756  and  _2759
REMARK  815  A    between atoms: _2759  and  _2760
REMARK  816  A    between atoms: _2767  and  _2768
REMARK  817  A    between atoms: _2768  and  _2769
REMARK  818  A    between atoms: _2768  and  _2771
REMARK  819  A    between atoms: _2771  and  _2772
REMARK  820  A    between atoms: _2772  and  _2773
REMARK  821  A    between atoms: _2784  and  _2785
REMARK  822  A    between atoms: _2785  and  _2786
REMARK  823  A    between atoms: _2785  and  _2788
REMARK  824  A    between atoms: _2788  and  _2789
REMARK  825  A    between atoms: _2788  and  _2790
REMARK  826  A    between atoms: _2798  and  _2799
REMARK  827  A    between atoms: _2799  and  _2800
REMARK  828  A    between atoms: _2799  and  _2802
REMARK  829  A    between atoms: _2802  and  _2803
REMARK  830  A    between atoms: _2803  and  _2804
REMARK  831  A    between atoms: _2813  and  _2814
REMARK  832  A    between atoms: _2814  and  _2815
REMARK  833  A    between atoms: _2814  and  _2817
REMARK  834  A    between atoms: _2817  and  _2818
REMARK  835  A    between atoms: _2823  and  _2824
REMARK  836  A    between atoms: _2834  and  _2835
REMARK  837  A    between atoms: _2835  and  _2838
REMARK  838  A    between atoms: _2838  and  _2839
REMARK  839  A    between atoms: _2839  and  _2840
REMARK  840  A    between atoms: _2839  and  _2841
REMARK  841  A    between atoms: _2884  and  _2885
REMARK  842  A    between atoms: _2884  and  _2887
REMARK  843  A    between atoms: _2887  and  _2888
REMARK  844  A    between atoms: _2888  and  _2889
REMARK  845  A    between atoms: _2899  and  _2900
REMARK  846  A    between atoms: _2900  and  _2901
REMARK  847  A    between atoms: _2900  and  _2903
REMARK  848  A    between atoms: _2903  and  _2904
REMARK  849  A    between atoms: _2904  and  _2905
REMARK  850  A    between atoms: _2905  and  _2906
REMARK  851  A    between atoms: _2923  and  _2924
REMARK  852  A    between atoms: _2924  and  _2925
REMARK  853  A    between atoms: _2924  and  _2927
REMARK  854  A    between atoms: _2927  and  _2928
REMARK  855  A    between atoms: _2928  and  _2929
REMARK  856  A    between atoms: _2929  and  _2930
REMARK  857  A    between atoms: _2947  and  _2948
REMARK  858  A    between atoms: _2948  and  _2949
REMARK  859  A    between atoms: _2948  and  _2951
REMARK  860  A    between atoms: _2951  and  _2952
REMARK  861  A    between atoms: _2951  and  _2953
REMARK  862  A    between atoms: _2952  and  _2954
REMARK  863  A    between atoms: _2966  and  _2967
REMARK  864  A    between atoms: _2967  and  _2968
REMARK  865  A    between atoms: _2967  and  _2970
REMARK  866  A    between atoms: _2970  and  _2971
REMARK  867  A    between atoms: _2971  and  _2972
REMARK  868  A    between atoms: _2972  and  _2973
REMARK  869  A    between atoms: _2973  and  _2974
REMARK  870  A    between atoms: _2988  and  _2989
REMARK  871  A    between atoms: _2989  and  _2990
REMARK  872  A    between atoms: _2989  and  _2992
REMARK  873  A    between atoms: _2992  and  _2993
REMARK  874  A    between atoms: _2993  and  _2994
REMARK  875  A    between atoms: _3003  and  _3004
REMARK  876  A    between atoms: _3004  and  _3005
REMARK  877  A    between atoms: _3004  and  _3007
REMARK  878  A    between atoms: _3007  and  _3008
REMARK  879  A    between atoms: _3007  and  _3009
REMARK  880  A    between atoms: _3008  and  _3010
REMARK  881  A    between atoms: _3022  and  _3023
REMARK  882  A    between atoms: _3023  and  _3024
REMARK  883  A    between atoms: _3023  and  _3026
REMARK  884  A    between atoms: _3026  and  _3027
REMARK  885  A    between atoms: _3026  and  _3028
REMARK  886  A    between atoms: _3038  and  _3039
REMARK  887  A    between atoms: _3039  and  _3040
REMARK  888  A    between atoms: _3039  and  _3042
REMARK  889  A    between atoms: _3042  and  _3043
REMARK  890  A    between atoms: _3043  and  _3044
REMARK  891  A    between atoms: _3044  and  _3045
REMARK  892  A    between atoms: _3045  and  _3046
REMARK  893  A    between atoms: _3060  and  _3061
REMARK  894  A    between atoms: _3061  and  _3062
REMARK  895  A    between atoms: _3061  and  _3064
REMARK  896  A    between atoms: _3064  and  _3065
REMARK  897  A    between atoms: _3065  and  _3066
REMARK  898  A    between atoms: _3066  and  _3067
REMARK  899  A    between atoms: _3067  and  _3068
REMARK  900  A    between atoms: _3082  and  _3083
REMARK  901  A    between atoms: _3083  and  _3084
REMARK  902  A    between atoms: _3083  and  _3086
REMARK  903  A    between atoms: _3086  and  _3087
REMARK  904  A    between atoms: _3099  and  _3100
REMARK  905  A    between atoms: _3100  and  _3101
REMARK  906  A    between atoms: _3100  and  _3103
REMARK  907  A    between atoms: _3103  and  _3104
REMARK  908  A    between atoms: _3110  and  _3111
REMARK  909  A    between atoms: _3111  and  _3112
REMARK  910  A    between atoms: _3111  and  _3114
REMARK  911  A    between atoms: _3114  and  _3115
REMARK  912  A    between atoms: _3115  and  _3116
REMARK  913  A    between atoms: _3127  and  _3128
REMARK  914  A    between atoms: _3128  and  _3129
REMARK  915  A    between atoms: _3128  and  _3131
REMARK  916  A    between atoms: _3131  and  _3132
REMARK  917  A    between atoms: _3147  and  _3148
REMARK  918  A    between atoms: _3148  and  _3149
REMARK  919  A    between atoms: _3148  and  _3151
REMARK  920  A    between atoms: _3151  and  _3152
REMARK  921  A    between atoms: _3151  and  _3153
REMARK  922  A    between atoms: _3152  and  _3154
REMARK  923  A    between atoms: _3166  and  _3167
REMARK  924  A    between atoms: _3167  and  _3168
REMARK  925  A    between atoms: _3173  and  _3174
REMARK  926  A    between atoms: _3174  and  _3175
REMARK  927  A    between atoms: _3174  and  _3177
REMARK  928  A    between atoms: _3177  and  _3178
REMARK  929  A    between atoms: _3183  and  _3184
REMARK  930  A    between atoms: _3195  and  _3196
REMARK  931  A    between atoms: _3208  and  _3209
REMARK  932  A    between atoms: _3209  and  _3210
REMARK  933  A    between atoms: _3209  and  _3212
REMARK  934  A    between atoms: _3212  and  _3213
REMARK  935  A    between atoms: _3212  and  _3214
REMARK  936  A    between atoms: _3213  and  _3215
REMARK  937  A    between atoms: _3227  and  _3228
REMARK  938  A    between atoms: _3228  and  _3229
REMARK  939  A    between atoms: _3228  and  _3231
REMARK  940  A    between atoms: _3231  and  _3232
REMARK  941  A    between atoms: _3231  and  _3233
REMARK  942  A    between atoms: _3241  and  _3242
REMARK  943  A    between atoms: _3242  and  _3243
REMARK  944  A    between atoms: _3242  and  _3245
REMARK  945  A    between atoms: _3245  and  _3246
REMARK  946  A    between atoms: _3246  and  _3247
REMARK  947  A    between atoms: _3246  and  _3248
REMARK  948  A    between atoms: _3260  and  _3261
REMARK  949  A    between atoms: _3261  and  _3262
REMARK  950  A    between atoms: _3261  and  _3264
REMARK  951  A    between atoms: _3264  and  _3265
REMARK  952  A    between atoms: _3280  and  _3281
REMARK  953  A    between atoms: _3281  and  _3282
REMARK  954  A    between atoms: _3281  and  _3284
REMARK  955  A    between atoms: _3284  and  _3285
REMARK  956  A    between atoms: _3284  and  _3286
REMARK  957  A    between atoms: _3296  and  _3297
REMARK  958  A    between atoms: _3297  and  _3298
REMARK  959  A    between atoms: _3297  and  _3300
REMARK  960  A    between atoms: _3300  and  _3301
REMARK  961  A    between atoms: _3301  and  _3302
REMARK                            x       y       z     vdW  Elec       q    Type
REMARK                         _______ _______ _______ _____ _____    ______ ____
ROOT
ATOM      1  C   UNL     1       7.190  38.809  39.172  0.00  0.00    +0.279 C 
ATOM      2  O   UNL     1       7.289  39.766  38.411  0.00  0.00    -0.279 OA
ENDROOT
TORSDOF 0
REMARK  Name = /Users/mlugowska/PhD/ML_residence_time_prediction/protein_files/5J20_protein.pdb
REMARK  961 active torsions:
REMARK  status: ('A' for Active; 'I' for Inactive)
REMARK    1  A    between atoms: _2  and  _3
REMARK    2  A    between atoms: _2  and  _5
REMARK    3  A    between atoms: _10  and  _11
REMARK    4  A    between atoms: _11  and  _12
REMARK    5  A    between atoms: _11  and  _14
REMARK    6  A    between atoms: _14  and  _15
REMARK    7  A    between atoms: _14  and  _16
REMARK    8  A    between atoms: _26  and  _27
REMARK    9  A    between atoms: _27  and  _28
REMARK   10  A    between atoms: _27  and  _30
REMARK   11  A    between atoms: _30  and  _31
REMARK   12  A    between atoms: _31  and  _32
REMARK   13  A    between atoms: _41  and  _42
REMARK   14  A    between atoms: _42  and  _43
REMARK   15  A    between atoms: _42  and  _45
REMARK   16  A    between atoms: _45  and  _46
REMARK   17  A    between atoms: _45  and  _47
REMARK   18  A    between atoms: _55  and  _56
REMARK   19  A    between atoms: _56  and  _57
REMARK   20  A    between atoms: _56  and  _59
REMARK   21  A    between atoms: _59  and  _60
REMARK   22  A    between atoms: _75  and  _76
REMARK   23  A    between atoms: _76  and  _77
REMARK   24  A    between atoms: _76  and  _79
REMARK   25  A    between atoms: _85  and  _86
REMARK   26  A    between atoms: _86  and  _87
REMARK   27  A    between atoms: _86  and  _89
REMARK   28  A    between atoms: _89  and  _90
REMARK   29  A    between atoms: _105  and  _106
REMARK   30  A    between atoms: _106  and  _107
REMARK   31  A    between atoms: _106  and  _109
REMARK   32  A    between atoms: _109  and  _110
REMARK   33  A    between atoms: _110  and  _111
REMARK   34  A    between atoms: _122  and  _123
REMARK   35  A    between atoms: _123  and  _124
REMARK   36  A    between atoms: _123  and  _126
REMARK   37  A    between atoms: _132  and  _133
REMARK   38  A    between atoms: _133  and  _134
REMARK   39  A    between atoms: _133  and  _136
REMARK   40  A    between atoms: _136  and  _137
REMARK   41  A    between atoms: _137  and  _138
REMARK   42  A    between atoms: _147  and  _148
REMARK   43  A    between atoms: _148  and  _149
REMARK   44  A    between atoms: _148  and  _151
REMARK   45  A    between atoms: _151  and  _152
REMARK   46  A    between atoms: _151  and  _153
REMARK   47  A    between atoms: _152  and  _154
REMARK   48  A    between atoms: _166  and  _167
REMARK   49  A    between atoms: _167  and  _168
REMARK   50  A    between atoms: _167  and  _170
REMARK   51  A    between atoms: _176  and  _177
REMARK   52  A    between atoms: _177  and  _178
REMARK   53  A    between atoms: _177  and  _180
REMARK   54  A    between atoms: _180  and  _181
REMARK   55  A    between atoms: _181  and  _182
REMARK   56  A    between atoms: _193  and  _194
REMARK   57  A    between atoms: _194  and  _195
REMARK   58  A    between atoms: _194  and  _197
REMARK   59  A    between atoms: _197  and  _198
REMARK   60  A    between atoms: _198  and  _199
REMARK   61  A    between atoms: _198  and  _200
REMARK   62  A    between atoms: _212  and  _213
REMARK   63  A    between atoms: _213  and  _214
REMARK   64  A    between atoms: _213  and  _216
REMARK   65  A    between atoms: _216  and  _217
REMARK   66  A    between atoms: _217  and  _218
REMARK   67  A    between atoms: _218  and  _219
REMARK   68  A    between atoms: _229  and  _230
REMARK   69  A    between atoms: _230  and  _231
REMARK   70  A    between atoms: _230  and  _233
REMARK   71  A    between atoms: _233  and  _234
REMARK   72  A    between atoms: _240  and  _241
REMARK   73  A    between atoms: _241  and  _242
REMARK   74  A    between atoms: _241  and  _244
REMARK   75  A    between atoms: _244  and  _245
REMARK   76  A    between atoms: _245  and  _246
REMARK   77  A    between atoms: _245  and  _247
REMARK   78  A    between atoms: _259  and  _260
REMARK   79  A    between atoms: _260  and  _261
REMARK   80  A    between atoms: _260  and  _263
REMARK   81  A    between atoms: _263  and  _264
REMARK   82  A    between atoms: _263  and  _265
REMARK   83  A    between atoms: _264  and  _266
REMARK   84  A    between atoms: _278  and  _279
REMARK   85  A    between atoms: _279  and  _280
REMARK   86  A    between atoms: _279  and  _282
REMARK   87  A    between atoms: _282  and  _283
REMARK   88  A    between atoms: _282  and  _284
REMARK   89  A    between atoms: _283  and  _285
REMARK   90  A    between atoms: _297  and  _298
REMARK   91  A    between atoms: _298  and  _299
REMARK   92  A    between atoms: _298  and  _301
REMARK   93  A    between atoms: _301  and  _302
REMARK   94  A    between atoms: _311  and  _312
REMARK   95  A    between atoms: _312  and  _313
REMARK   96  A    between atoms: _312  and  _315
REMARK   97  A    between atoms: _315  and  _316
REMARK   98  A    between atoms: _315  and  _317
REMARK   99  A    between atoms: _325  and  _326
REMARK  100  A    between atoms: _326  and  _327
REMARK  101  A    between atoms: _326  and  _329
REMARK  102  A    between atoms: _329  and  _330
REMARK  103  A    between atoms: _345  and  _346
REMARK  104  A    between atoms: _346  and  _347
REMARK  105  A    between atoms: _346  and  _349
REMARK  106  A    between atoms: _349  and  _350
REMARK  107  A    between atoms: _355  and  _356
REMARK  108  A    between atoms: _366  and  _367
REMARK  109  A    between atoms: _367  and  _368
REMARK  110  A    between atoms: _367  and  _370
REMARK  111  A    between atoms: _370  and  _371
REMARK  112  A    between atoms: _377  and  _378
REMARK  113  A    between atoms: _378  and  _379
REMARK  114  A    between atoms: _378  and  _381
REMARK  115  A    between atoms: _381  and  _382
REMARK  116  A    between atoms: _391  and  _392
REMARK  117  A    between atoms: _392  and  _393
REMARK  118  A    between atoms: _392  and  _395
REMARK  119  A    between atoms: _395  and  _396
REMARK  120  A    between atoms: _396  and  _397
REMARK  121  A    between atoms: _397  and  _398
REMARK  122  A    between atoms: _398  and  _399
REMARK  123  A    between atoms: _413  and  _414
REMARK  124  A    between atoms: _414  and  _415
REMARK  125  A    between atoms: _414  and  _417
REMARK  126  A    between atoms: _417  and  _418
REMARK  127  A    between atoms: _418  and  _419
REMARK  128  A    between atoms: _428  and  _429
REMARK  129  A    between atoms: _429  and  _430
REMARK  130  A    between atoms: _429  and  _432
REMARK  131  A    between atoms: _432  and  _433
REMARK  132  A    between atoms: _432  and  _434
REMARK  133  A    between atoms: _433  and  _435
REMARK  134  A    between atoms: _447  and  _448
REMARK  135  A    between atoms: _448  and  _449
REMARK  136  A    between atoms: _448  and  _451
REMARK  137  A    between atoms: _451  and  _452
REMARK  138  A    between atoms: _467  and  _468
REMARK  139  A    between atoms: _468  and  _469
REMARK  140  A    between atoms: _468  and  _471
REMARK  141  A    between atoms: _471  and  _472
REMARK  142  A    between atoms: _472  and  _473
REMARK  143  A    between atoms: _472  and  _474
REMARK  144  A    between atoms: _486  and  _487
REMARK  145  A    between atoms: _487  and  _488
REMARK  146  A    between atoms: _487  and  _490
REMARK  147  A    between atoms: _490  and  _491
REMARK  148  A    between atoms: _491  and  _492
REMARK  149  A    between atoms: _492  and  _493
REMARK  150  A    between atoms: _510  and  _511
REMARK  151  A    between atoms: _511  and  _512
REMARK  152  A    between atoms: _511  and  _514
REMARK  153  A    between atoms: _514  and  _515
REMARK  154  A    between atoms: _515  and  _516
REMARK  155  A    between atoms: _525  and  _526
REMARK  156  A    between atoms: _526  and  _527
REMARK  157  A    between atoms: _526  and  _529
REMARK  158  A    between atoms: _529  and  _530
REMARK  159  A    between atoms: _530  and  _531
REMARK  160  A    between atoms: _530  and  _532
REMARK  161  A    between atoms: _544  and  _545
REMARK  162  A    between atoms: _545  and  _546
REMARK  163  A    between atoms: _545  and  _548
REMARK  164  A    between atoms: _548  and  _549
REMARK  165  A    between atoms: _548  and  _550
REMARK  166  A    between atoms: _549  and  _551
REMARK  167  A    between atoms: _563  and  _564
REMARK  168  A    between atoms: _564  and  _565
REMARK  169  A    between atoms: _564  and  _567
REMARK  170  A    between atoms: _567  and  _568
REMARK  171  A    between atoms: _574  and  _575
REMARK  172  A    between atoms: _575  and  _576
REMARK  173  A    between atoms: _575  and  _578
REMARK  174  A    between atoms: _578  and  _579
REMARK  175  A    between atoms: _588  and  _589
REMARK  176  A    between atoms: _589  and  _590
REMARK  177  A    between atoms: _589  and  _592
REMARK  178  A    between atoms: _592  and  _593
REMARK  179  A    between atoms: _599  and  _600
REMARK  180  A    between atoms: _600  and  _601
REMARK  181  A    between atoms: _600  and  _603
REMARK  182  A    between atoms: _603  and  _604
REMARK  183  A    between atoms: _610  and  _611
REMARK  184  A    between atoms: _611  and  _612
REMARK  185  A    between atoms: _611  and  _614
REMARK  186  A    between atoms: _614  and  _615
REMARK  187  A    between atoms: _622  and  _623
REMARK  188  A    between atoms: _623  and  _624
REMARK  189  A    between atoms: _623  and  _626
REMARK  190  A    between atoms: _632  and  _633
REMARK  191  A    between atoms: _633  and  _634
REMARK  192  A    between atoms: _633  and  _636
REMARK  193  A    between atoms: _636  and  _637
REMARK  194  A    between atoms: _637  and  _638
REMARK  195  A    between atoms: _637  and  _639
REMARK  196  A    between atoms: _651  and  _652
REMARK  197  A    between atoms: _652  and  _653
REMARK  198  A    between atoms: _652  and  _655
REMARK  199  A    between atoms: _655  and  _656
REMARK  200  A    between atoms: _663  and  _664
REMARK  201  A    between atoms: _664  and  _665
REMARK  202  A    between atoms: _664  and  _667
REMARK  203  A    between atoms: _667  and  _668
REMARK  204  A    between atoms: _668  and  _669
REMARK  205  A    between atoms: _669  and  _670
REMARK  206  A    between atoms: _670  and  _671
REMARK  207  A    between atoms: _685  and  _686
REMARK  208  A    between atoms: _686  and  _687
REMARK  209  A    between atoms: _686  and  _689
REMARK  210  A    between atoms: _689  and  _690
REMARK  211  A    between atoms: _689  and  _691
REMARK  212  A    between atoms: _690  and  _692
REMARK  213  A    between atoms: _704  and  _705
REMARK  214  A    between atoms: _705  and  _706
REMARK  215  A    between atoms: _705  and  _708
REMARK  216  A    between atoms: _708  and  _709
REMARK  217  A    between atoms: _709  and  _710
REMARK  218  A    between atoms: _710  and  _711
REMARK  219  A    between atoms: _728  and  _729
REMARK  220  A    between atoms: _729  and  _730
REMARK  221  A    between atoms: _729  and  _732
REMARK  222  A    between atoms: _732  and  _733
REMARK  223  A    between atoms: _738  and  _739
REMARK  224  A    between atoms: _749  and  _750
REMARK  225  A    between atoms: _750  and  _751
REMARK  226  A    between atoms: _750  and  _753
REMARK  227  A    between atoms: _753  and  _754
REMARK  228  A    between atoms: _754  and  _755
REMARK  229  A    between atoms: _764  and  _765
REMARK  230  A    between atoms: _765  and  _766
REMARK  231  A    between atoms: _765  and  _768
REMARK  232  A    between atoms: _772  and  _773
REMARK  233  A    between atoms: _773  and  _774
REMARK  234  A    between atoms: _773  and  _776
REMARK  235  A    between atoms: _776  and  _777
REMARK  236  A    between atoms: _777  and  _778
REMARK  237  A    between atoms: _777  and  _779
REMARK  238  A    between atoms: _791  and  _792
REMARK  239  A    between atoms: _792  and  _793
REMARK  240  A    between atoms: _792  and  _795
REMARK  241  A    between atoms: _795  and  _796
REMARK  242  A    between atoms: _795  and  _797
REMARK  243  A    between atoms: _805  and  _806
REMARK  244  A    between atoms: _806  and  _807
REMARK  245  A    between atoms: _806  and  _809
REMARK  246  A    between atoms: _809  and  _810
REMARK  247  A    between atoms: _818  and  _819
REMARK  248  A    between atoms: _831  and  _832
REMARK  249  A    between atoms: _832  and  _833
REMARK  250  A    between atoms: _832  and  _835
REMARK  251  A    between atoms: _835  and  _836
REMARK  252  A    between atoms: _842  and  _843
REMARK  253  A    between atoms: _843  and  _844
REMARK  254  A    between atoms: _843  and  _846
REMARK  255  A    between atoms: _846  and  _847
REMARK  256  A    between atoms: _847  and  _848
REMARK  257  A    between atoms: _848  and  _849
REMARK  258  A    between atoms: _849  and  _850
REMARK  259  A    between atoms: _864  and  _865
REMARK  260  A    between atoms: _865  and  _866
REMARK  261  A    between atoms: _865  and  _868
REMARK  262  A    between atoms: _868  and  _869
REMARK  263  A    between atoms: _869  and  _870
REMARK  264  A    between atoms: _869  and  _871
REMARK  265  A    between atoms: _883  and  _884
REMARK  266  A    between atoms: _884  and  _885
REMARK  267  A    between atoms: _884  and  _887
REMARK  268  A    between atoms: _887  and  _888
REMARK  269  A    between atoms: _895  and  _896
REMARK  270  A    between atoms: _896  and  _897
REMARK  271  A    between atoms: _896  and  _899
REMARK  272  A    between atoms: _899  and  _900
REMARK  273  A    between atoms: _906  and  _907
REMARK  274  A    between atoms: _907  and  _908
REMARK  275  A    between atoms: _913  and  _914
REMARK  276  A    between atoms: _914  and  _915
REMARK  277  A    between atoms: _914  and  _917
REMARK  278  A    between atoms: _917  and  _918
REMARK  279  A    between atoms: _918  and  _919
REMARK  280  A    between atoms: _919  and  _920
REMARK  281  A    between atoms: _920  and  _921
REMARK  282  A    between atoms: _935  and  _936
REMARK  283  A    between atoms: _936  and  _937
REMARK  284  A    between atoms: _936  and  _939
REMARK  285  A    between atoms: _939  and  _940
REMARK  286  A    between atoms: _940  and  _941
REMARK  287  A    between atoms: _950  and  _951
REMARK  288  A    between atoms: _951  and  _952
REMARK  289  A    between atoms: _951  and  _954
REMARK  290  A    between atoms: _954  and  _955
REMARK  291  A    between atoms: _955  and  _956
REMARK  292  A    between atoms: _955  and  _957
REMARK  293  A    between atoms: _969  and  _970
REMARK  294  A    between atoms: _970  and  _971
REMARK  295  A    between atoms: _970  and  _973
REMARK  296  A    between atoms: _973  and  _974
REMARK  297  A    between atoms: _986  and  _987
REMARK  298  A    between atoms: _987  and  _988
REMARK  299  A    between atoms: _987  and  _990
REMARK  300  A    between atoms: _990  and  _991
REMARK  301  A    between atoms: _990  and  _992
REMARK  302  A    between atoms: _991  and  _993
REMARK  303  A    between atoms: _1005  and  _1006
REMARK  304  A    between atoms: _1006  and  _1007
REMARK  305  A    between atoms: _1006  and  _1009
REMARK  306  A    between atoms: _1009  and  _1010
REMARK  307  A    between atoms: _1019  and  _1020
REMARK  308  A    between atoms: _1020  and  _1021
REMARK  309  A    between atoms: _1020  and  _1023
REMARK  310  A    between atoms: _1023  and  _1024
REMARK  311  A    between atoms: _1024  and  _1025
REMARK  312  A    between atoms: _1024  and  _1026
REMARK  313  A    between atoms: _1038  and  _1039
REMARK  314  A    between atoms: _1039  and  _1040
REMARK  315  A    between atoms: _1039  and  _1042
REMARK  316  A    between atoms: _1042  and  _1043
REMARK  317  A    between atoms: _1042  and  _1044
REMARK  318  A    between atoms: _1043  and  _1045
REMARK  319  A    between atoms: _1058  and  _1059
REMARK  320  A    between atoms: _1071  and  _1072
REMARK  321  A    between atoms: _1072  and  _1073
REMARK  322  A    between atoms: _1072  and  _1075
REMARK  323  A    between atoms: _1075  and  _1076
REMARK  324  A    between atoms: _1085  and  _1086
REMARK  325  A    between atoms: _1086  and  _1087
REMARK  326  A    between atoms: _1086  and  _1089
REMARK  327  A    between atoms: _1089  and  _1090
REMARK  328  A    between atoms: _1090  and  _1091
REMARK  329  A    between atoms: _1091  and  _1092
REMARK  330  A    between atoms: _1092  and  _1093
REMARK  331  A    between atoms: _1107  and  _1108
REMARK  332  A    between atoms: _1108  and  _1109
REMARK  333  A    between atoms: _1108  and  _1111
REMARK  334  A    between atoms: _1111  and  _1112
REMARK  335  A    between atoms: _1112  and  _1113
REMARK  336  A    between atoms: _1124  and  _1125
REMARK  337  A    between atoms: _1125  and  _1126
REMARK  338  A    between atoms: _1125  and  _1128
REMARK  339  A    between atoms: _1128  and  _1129
REMARK  340  A    between atoms: _1136  and  _1137
REMARK  341  A    between atoms: _1137  and  _1138
REMARK  342  A    between atoms: _1137  and  _1140
REMARK  343  A    between atoms: _1140  and  _1141
REMARK  344  A    between atoms: _1141  and  _1142
REMARK  345  A    between atoms: _1142  and  _1143
REMARK  346  A    between atoms: _1160  and  _1161
REMARK  347  A    between atoms: _1161  and  _1162
REMARK  348  A    between atoms: _1161  and  _1164
REMARK  349  A    between atoms: _1164  and  _1165
REMARK  350  A    between atoms: _1164  and  _1166
REMARK  351  A    between atoms: _1174  and  _1175
REMARK  352  A    between atoms: _1175  and  _1176
REMARK  353  A    between atoms: _1175  and  _1178
REMARK  354  A    between atoms: _1178  and  _1179
REMARK  355  A    between atoms: _1179  and  _1180
REMARK  356  A    between atoms: _1179  and  _1181
REMARK  357  A    between atoms: _1193  and  _1194
REMARK  358  A    between atoms: _1194  and  _1195
REMARK  359  A    between atoms: _1194  and  _1197
REMARK  360  A    between atoms: _1197  and  _1198
REMARK  361  A    between atoms: _1197  and  _1199
REMARK  362  A    between atoms: _1207  and  _1208
REMARK  363  A    between atoms: _1208  and  _1209
REMARK  364  A    between atoms: _1208  and  _1211
REMARK  365  A    between atoms: _1211  and  _1212
REMARK  366  A    between atoms: _1211  and  _1213
REMARK  367  A    between atoms: _1212  and  _1214
REMARK  368  A    between atoms: _1226  and  _1227
REMARK  369  A    between atoms: _1227  and  _1228
REMARK  370  A    between atoms: _1227  and  _1230
REMARK  371  A    between atoms: _1230  and  _1231
REMARK  372  A    between atoms: _1230  and  _1232
REMARK  373  A    between atoms: _1242  and  _1243
REMARK  374  A    between atoms: _1243  and  _1244
REMARK  375  A    between atoms: _1243  and  _1246
REMARK  376  A    between atoms: _1246  and  _1247
REMARK  377  A    between atoms: _1254  and  _1255
REMARK  378  A    between atoms: _1255  and  _1256
REMARK  379  A    between atoms: _1255  and  _1258
REMARK  380  A    between atoms: _1258  and  _1259
REMARK  381  A    between atoms: _1258  and  _1260
REMARK  382  A    between atoms: _1268  and  _1269
REMARK  383  A    between atoms: _1269  and  _1270
REMARK  384  A    between atoms: _1275  and  _1276
REMARK  385  A    between atoms: _1276  and  _1277
REMARK  386  A    between atoms: _1276  and  _1279
REMARK  387  A    between atoms: _1279  and  _1280
REMARK  388  A    between atoms: _1279  and  _1281
REMARK  389  A    between atoms: _1280  and  _1282
REMARK  390  A    between atoms: _1294  and  _1295
REMARK  391  A    between atoms: _1295  and  _1296
REMARK  392  A    between atoms: _1301  and  _1302
REMARK  393  A    between atoms: _1302  and  _1303
REMARK  394  A    between atoms: _1302  and  _1305
REMARK  395  A    between atoms: _1305  and  _1306
REMARK  396  A    between atoms: _1306  and  _1307
REMARK  397  A    between atoms: _1307  and  _1308
REMARK  398  A    between atoms: _1318  and  _1319
REMARK  399  A    between atoms: _1319  and  _1320
REMARK  400  A    between atoms: _1319  and  _1322
REMARK  401  A    between atoms: _1322  and  _1323
REMARK  402  A    between atoms: _1322  and  _1324
REMARK  403  A    between atoms: _1332  and  _1333
REMARK  404  A    between atoms: _1333  and  _1334
REMARK  405  A    between atoms: _1333  and  _1336
REMARK  406  A    between atoms: _1336  and  _1337
REMARK  407  A    between atoms: _1337  and  _1338
REMARK  408  A    between atoms: _1338  and  _1339
REMARK  409  A    between atoms: _1339  and  _1340
REMARK  410  A    between atoms: _1354  and  _1355
REMARK  411  A    between atoms: _1355  and  _1356
REMARK  412  A    between atoms: _1355  and  _1358
REMARK  413  A    between atoms: _1364  and  _1365
REMARK  414  A    between atoms: _1365  and  _1366
REMARK  415  A    between atoms: _1365  and  _1368
REMARK  416  A    between atoms: _1368  and  _1369
REMARK  417  A    between atoms: _1376  and  _1377
REMARK  418  A    between atoms: _1377  and  _1378
REMARK  419  A    between atoms: _1377  and  _1380
REMARK  420  A    between atoms: _1380  and  _1381
REMARK  421  A    between atoms: _1381  and  _1382
REMARK  422  A    between atoms: _1381  and  _1383
REMARK  423  A    between atoms: _1395  and  _1396
REMARK  424  A    between atoms: _1396  and  _1399
REMARK  425  A    between atoms: _1399  and  _1400
REMARK  426  A    between atoms: _1399  and  _1401
REMARK  427  A    between atoms: _1400  and  _1402
REMARK  428  A    between atoms: _1422  and  _1425
REMARK  429  A    between atoms: _1424  and  _1428
REMARK  430  A    between atoms: _1425  and  _1427
REMARK  431  A    between atoms: _1443  and  _1444
REMARK  432  A    between atoms: _1443  and  _1446
REMARK  433  A    between atoms: _1446  and  _1447
REMARK  434  A    between atoms: _1457  and  _1458
REMARK  435  A    between atoms: _1458  and  _1459
REMARK  436  A    between atoms: _1458  and  _1461
REMARK  437  A    between atoms: _1461  and  _1462
REMARK  438  A    between atoms: _1462  and  _1463
REMARK  439  A    between atoms: _1462  and  _1464
REMARK  440  A    between atoms: _1476  and  _1477
REMARK  441  A    between atoms: _1477  and  _1478
REMARK  442  A    between atoms: _1483  and  _1484
REMARK  443  A    between atoms: _1484  and  _1485
REMARK  444  A    between atoms: _1484  and  _1487
REMARK  445  A    between atoms: _1487  and  _1488
REMARK  446  A    between atoms: _1487  and  _1489
REMARK  447  A    between atoms: _1497  and  _1498
REMARK  448  A    between atoms: _1498  and  _1499
REMARK  449  A    between atoms: _1498  and  _1501
REMARK  450  A    between atoms: _1501  and  _1502
REMARK  451  A    between atoms: _1501  and  _1503
REMARK  452  A    between atoms: _1502  and  _1504
REMARK  453  A    between atoms: _1516  and  _1517
REMARK  454  A    between atoms: _1517  and  _1518
REMARK  455  A    between atoms: _1517  and  _1520
REMARK  456  A    between atoms: _1526  and  _1527
REMARK  457  A    between atoms: _1527  and  _1528
REMARK  458  A    between atoms: _1527  and  _1530
REMARK  459  A    between atoms: _1530  and  _1531
REMARK  460  A    between atoms: _1531  and  _1532
REMARK  461  A    between atoms: _1532  and  _1533
REMARK  462  A    between atoms: _1533  and  _1534
REMARK  463  A    between atoms: _1548  and  _1549
REMARK  464  A    between atoms: _1549  and  _1550
REMARK  465  A    between atoms: _1549  and  _1552
REMARK  466  A    between atoms: _1552  and  _1553
REMARK  467  A    between atoms: _1559  and  _1560
REMARK  468  A    between atoms: _1560  and  _1561
REMARK  469  A    between atoms: _1566  and  _1567
REMARK  470  A    between atoms: _1567  and  _1568
REMARK  471  A    between atoms: _1567  and  _1570
REMARK  472  A    between atoms: _1570  and  _1571
REMARK  473  A    between atoms: _1570  and  _1572
REMARK  474  A    between atoms: _1580  and  _1581
REMARK  475  A    between atoms: _1581  and  _1582
REMARK  476  A    between atoms: _1581  and  _1584
REMARK  477  A    between atoms: _1584  and  _1585
REMARK  478  A    between atoms: _1585  and  _1586
REMARK  479  A    between atoms: _1586  and  _1587
REMARK  480  A    between atoms: _1587  and  _1588
REMARK  481  A    between atoms: _1602  and  _1603
REMARK  482  A    between atoms: _1603  and  _1604
REMARK  483  A    between atoms: _1603  and  _1606
REMARK  484  A    between atoms: _1612  and  _1613
REMARK  485  A    between atoms: _1613  and  _1614
REMARK  486  A    between atoms: _1613  and  _1616
REMARK  487  A    between atoms: _1616  and  _1617
REMARK  488  A    between atoms: _1632  and  _1633
REMARK  489  A    between atoms: _1633  and  _1634
REMARK  490  A    between atoms: _1633  and  _1636
REMARK  491  A    between atoms: _1636  and  _1637
REMARK  492  A    between atoms: _1637  and  _1638
REMARK  493  A    between atoms: _1638  and  _1639
REMARK  494  A    between atoms: _1649  and  _1650
REMARK  495  A    between atoms: _1650  and  _1651
REMARK  496  A    between atoms: _1650  and  _1653
REMARK  497  A    between atoms: _1653  and  _1654
REMARK  498  A    between atoms: _1654  and  _1655
REMARK  499  A    between atoms: _1664  and  _1665
REMARK  500  A    between atoms: _1665  and  _1666
REMARK  501  A    between atoms: _1665  and  _1668
REMARK  502  A    between atoms: _1674  and  _1675
REMARK  503  A    between atoms: _1675  and  _1676
REMARK  504  A    between atoms: _1675  and  _1678
REMARK  505  A    between atoms: _1678  and  _1679
REMARK  506  A    between atoms: _1679  and  _1680
REMARK  507  A    between atoms: _1679  and  _1681
REMARK  508  A    between atoms: _1693  and  _1694
REMARK  509  A    between atoms: _1694  and  _1695
REMARK  510  A    between atoms: _1694  and  _1697
REMARK  511  A    between atoms: _1697  and  _1698
REMARK  512  A    between atoms: _1698  and  _1699
REMARK  513  A    between atoms: _1710  and  _1711
REMARK  514  A    between atoms: _1711  and  _1712
REMARK  515  A    between atoms: _1711  and  _1714
REMARK  516  A    between atoms: _1720  and  _1721
REMARK  517  A    between atoms: _1721  and  _1722
REMARK  518  A    between atoms: _1727  and  _1728
REMARK  519  A    between atoms: _1728  and  _1729
REMARK  520  A    between atoms: _1728  and  _1731
REMARK  521  A    between atoms: _1737  and  _1738
REMARK  522  A    between atoms: _1738  and  _1739
REMARK  523  A    between atoms: _1738  and  _1741
REMARK  524  A    between atoms: _1741  and  _1742
REMARK  525  A    between atoms: _1749  and  _1750
REMARK  526  A    between atoms: _1750  and  _1751
REMARK  527  A    between atoms: _1750  and  _1753
REMARK  528  A    between atoms: _1753  and  _1754
REMARK  529  A    between atoms: _1753  and  _1755
REMARK  530  A    between atoms: _1754  and  _1756
REMARK  531  A    between atoms: _1768  and  _1769
REMARK  532  A    between atoms: _1769  and  _1772
REMARK  533  A    between atoms: _1772  and  _1773
REMARK  534  A    between atoms: _1791  and  _1793
REMARK  535  A    between atoms: _1792  and  _1794
REMARK  536  A    between atoms: _1814  and  _1815
REMARK  537  A    between atoms: _1814  and  _1817
REMARK  538  A    between atoms: _1817  and  _1818
REMARK  539  A    between atoms: _1817  and  _1819
REMARK  540  A    between atoms: _1818  and  _1820
REMARK  541  A    between atoms: _1833  and  _1834
REMARK  542  A    between atoms: _1834  and  _1835
REMARK  543  A    between atoms: _1840  and  _1841
REMARK  544  A    between atoms: _1841  and  _1842
REMARK  545  A    between atoms: _1841  and  _1844
REMARK  546  A    between atoms: _1844  and  _1845
REMARK  547  A    between atoms: _1845  and  _1846
REMARK  548  A    between atoms: _1857  and  _1858
REMARK  549  A    between atoms: _1858  and  _1859
REMARK  550  A    between atoms: _1858  and  _1861
REMARK  551  A    between atoms: _1861  and  _1862
REMARK  552  A    between atoms: _1877  and  _1878
REMARK  553  A    between atoms: _1878  and  _1879
REMARK  554  A    between atoms: _1884  and  _1885
REMARK  555  A    between atoms: _1885  and  _1886
REMARK  556  A    between atoms: _1885  and  _1888
REMARK  557  A    between atoms: _1888  and  _1889
REMARK  558  A    between atoms: _1888  and  _1890
REMARK  559  A    between atoms: _1900  and  _1901
REMARK  560  A    between atoms: _1901  and  _1902
REMARK  561  A    between atoms: _1907  and  _1908
REMARK  562  A    between atoms: _1908  and  _1909
REMARK  563  A    between atoms: _1908  and  _1911
REMARK  564  A    between atoms: _1911  and  _1912
REMARK  565  A    between atoms: _1927  and  _1928
REMARK  566  A    between atoms: _1928  and  _1929
REMARK  567  A    between atoms: _1928  and  _1931
REMARK  568  A    between atoms: _1931  and  _1932
REMARK  569  A    between atoms: _1937  and  _1938
REMARK  570  A    between atoms: _1948  and  _1949
REMARK  571  A    between atoms: _1949  and  _1950
REMARK  572  A    between atoms: _1949  and  _1952
REMARK  573  A    between atoms: _1952  and  _1953
REMARK  574  A    between atoms: _1959  and  _1960
REMARK  575  A    between atoms: _1960  and  _1961
REMARK  576  A    between atoms: _1960  and  _1963
REMARK  577  A    between atoms: _1969  and  _1970
REMARK  578  A    between atoms: _1970  and  _1971
REMARK  579  A    between atoms: _1970  and  _1973
REMARK  580  A    between atoms: _1973  and  _1974
REMARK  581  A    between atoms: _1979  and  _1980
REMARK  582  A    between atoms: _1990  and  _1991
REMARK  583  A    between atoms: _1991  and  _1992
REMARK  584  A    between atoms: _1991  and  _1994
REMARK  585  A    between atoms: _1994  and  _1995
REMARK  586  A    between atoms: _1995  and  _1996
REMARK  587  A    between atoms: _1995  and  _1997
REMARK  588  A    between atoms: _2009  and  _2010
REMARK  589  A    between atoms: _2010  and  _2011
REMARK  590  A    between atoms: _2010  and  _2013
REMARK  591  A    between atoms: _2013  and  _2014
REMARK  592  A    between atoms: _2013  and  _2015
REMARK  593  A    between atoms: _2025  and  _2026
REMARK  594  A    between atoms: _2026  and  _2027
REMARK  595  A    between atoms: _2026  and  _2029
REMARK  596  A    between atoms: _2035  and  _2036
REMARK  597  A    between atoms: _2036  and  _2037
REMARK  598  A    between atoms: _2036  and  _2039
REMARK  599  A    between atoms: _2039  and  _2040
REMARK  600  A    between atoms: _2040  and  _2041
REMARK  601  A    between atoms: _2050  and  _2051
REMARK  602  A    between atoms: _2051  and  _2052
REMARK  603  A    between atoms: _2051  and  _2054
REMARK  604  A    between atoms: _2054  and  _2055
REMARK  605  A    between atoms: _2055  and  _2056
REMARK  606  A    between atoms: _2056  and  _2057
REMARK  607  A    between atoms: _2057  and  _2058
REMARK  608  A    between atoms: _2072  and  _2073
REMARK  609  A    between atoms: _2073  and  _2074
REMARK  610  A    between atoms: _2073  and  _2076
REMARK  611  A    between atoms: _2076  and  _2077
REMARK  612  A    between atoms: _2076  and  _2078
REMARK  613  A    between atoms: _2088  and  _2089
REMARK  614  A    between atoms: _2089  and  _2090
REMARK  615  A    between atoms: _2089  and  _2092
REMARK  616  A    between atoms: _2092  and  _2093
REMARK  617  A    between atoms: _2092  and  _2094
REMARK  618  A    between atoms: _2102  and  _2103
REMARK  619  A    between atoms: _2103  and  _2104
REMARK  620  A    between atoms: _2103  and  _2106
REMARK  621  A    between atoms: _2106  and  _2107
REMARK  622  A    between atoms: _2106  and  _2108
REMARK  623  A    between atoms: _2118  and  _2119
REMARK  624  A    between atoms: _2119  and  _2120
REMARK  625  A    between atoms: _2119  and  _2122
REMARK  626  A    between atoms: _2122  and  _2123
REMARK  627  A    between atoms: _2122  and  _2124
REMARK  628  A    between atoms: _2123  and  _2125
REMARK  629  A    between atoms: _2137  and  _2138
REMARK  630  A    between atoms: _2138  and  _2139
REMARK  631  A    between atoms: _2138  and  _2141
REMARK  632  A    between atoms: _2141  and  _2142
REMARK  633  A    between atoms: _2141  and  _2143
REMARK  634  A    between atoms: _2151  and  _2152
REMARK  635  A    between atoms: _2152  and  _2153
REMARK  636  A    between atoms: _2152  and  _2155
REMARK  637  A    between atoms: _2155  and  _2156
REMARK  638  A    between atoms: _2156  and  _2157
REMARK  639  A    between atoms: _2157  and  _2158
REMARK  640  A    between atoms: _2158  and  _2159
REMARK  641  A    between atoms: _2173  and  _2174
REMARK  642  A    between atoms: _2174  and  _2175
REMARK  643  A    between atoms: _2174  and  _2177
REMARK  644  A    between atoms: _2177  and  _2178
REMARK  645  A    between atoms: _2190  and  _2191
REMARK  646  A    between atoms: _2191  and  _2192
REMARK  647  A    between atoms: _2191  and  _2194
REMARK  648  A    between atoms: _2194  and  _2195
REMARK  649  A    between atoms: _2204  and  _2205
REMARK  650  A    between atoms: _2205  and  _2206
REMARK  651  A    between atoms: _2205  and  _2208
REMARK  652  A    between atoms: _2208  and  _2209
REMARK  653  A    between atoms: _2216  and  _2217
REMARK  654  A    between atoms: _2217  and  _2218
REMARK  655  A    between atoms: _2217  and  _2220
REMARK  656  A    between atoms: _2220  and  _2221
REMARK  657  A    between atoms: _2228  and  _2229
REMARK  658  A    between atoms: _2229  and  _2230
REMARK  659  A    between atoms: _2229  and  _2232
REMARK  660  A    between atoms: _2232  and  _2233
REMARK  661  A    between atoms: _2233  and  _2234
REMARK  662  A    between atoms: _2243  and  _2244
REMARK  663  A    between atoms: _2244  and  _2245
REMARK  664  A    between atoms: _2244  and  _2247
REMARK  665  A    between atoms: _2247  and  _2248
REMARK  666  A    between atoms: _2248  and  _2249
REMARK  667  A    between atoms: _2260  and  _2261
REMARK  668  A    between atoms: _2261  and  _2262
REMARK  669  A    between atoms: _2261  and  _2264
REMARK  670  A    between atoms: _2264  and  _2265
REMARK  671  A    between atoms: _2270  and  _2271
REMARK  672  A    between atoms: _2281  and  _2282
REMARK  673  A    between atoms: _2282  and  _2283
REMARK  674  A    between atoms: _2282  and  _2285
REMARK  675  A    between atoms: _2291  and  _2292
REMARK  676  A    between atoms: _2292  and  _2293
REMARK  677  A    between atoms: _2292  and  _2295
REMARK  678  A    between atoms: _2295  and  _2296
REMARK  679  A    between atoms: _2315  and  _2316
REMARK  680  A    between atoms: _2316  and  _2317
REMARK  681  A    between atoms: _2316  and  _2319
REMARK  682  A    between atoms: _2319  and  _2320
REMARK  683  A    between atoms: _2320  and  _2321
REMARK  684  A    between atoms: _2330  and  _2331
REMARK  685  A    between atoms: _2331  and  _2332
REMARK  686  A    between atoms: _2331  and  _2334
REMARK  687  A    between atoms: _2334  and  _2335
REMARK  688  A    between atoms: _2341  and  _2342
REMARK  689  A    between atoms: _2342  and  _2343
REMARK  690  A    between atoms: _2342  and  _2345
REMARK  691  A    between atoms: _2345  and  _2346
REMARK  692  A    between atoms: _2352  and  _2353
REMARK  693  A    between atoms: _2353  and  _2354
REMARK  694  A    between atoms: _2353  and  _2356
REMARK  695  A    between atoms: _2362  and  _2363
REMARK  696  A    between atoms: _2363  and  _2364
REMARK  697  A    between atoms: _2369  and  _2370
REMARK  698  A    between atoms: _2370  and  _2371
REMARK  699  A    between atoms: _2376  and  _2377
REMARK  700  A    between atoms: _2377  and  _2378
REMARK  701  A    between atoms: _2377  and  _2380
REMARK  702  A    between atoms: _2380  and  _2381
REMARK  703  A    between atoms: _2387  and  _2388
REMARK  704  A    between atoms: _2388  and  _2389
REMARK  705  A    between atoms: _2388  and  _2391
REMARK  706  A    between atoms: _2391  and  _2392
REMARK  707  A    between atoms: _2407  and  _2408
REMARK  708  A    between atoms: _2408  and  _2409
REMARK  709  A    between atoms: _2408  and  _2411
REMARK  710  A    between atoms: _2411  and  _2412
REMARK  711  A    between atoms: _2411  and  _2413
REMARK  712  A    between atoms: _2421  and  _2422
REMARK  713  A    between atoms: _2422  and  _2423
REMARK  714  A    between atoms: _2422  and  _2425
REMARK  715  A    between atoms: _2425  and  _2426
REMARK  716  A    between atoms: _2425  and  _2427
REMARK  717  A    between atoms: _2437  and  _2438
REMARK  718  A    between atoms: _2438  and  _2439
REMARK  719  A    between atoms: _2438  and  _2441
REMARK  720  A    between atoms: _2441  and  _2442
REMARK  721  A    between atoms: _2442  and  _2443
REMARK  722  A    between atoms: _2443  and  _2444
REMARK  723  A    between atoms: _2461  and  _2462
REMARK  724  A    between atoms: _2462  and  _2463
REMARK  725  A    between atoms: _2462  and  _2465
REMARK  726  A    between atoms: _2465  and  _2466
REMARK  727  A    between atoms: _2465  and  _2467
REMARK  728  A    between atoms: _2475  and  _2476
REMARK  729  A    between atoms: _2476  and  _2477
REMARK  730  A    between atoms: _2476  and  _2479
REMARK  731  A    between atoms: _2479  and  _2480
REMARK  732  A    between atoms: _2487  and  _2488
REMARK  733  A    between atoms: _2488  and  _2489
REMARK  734  A    between atoms: _2488  and  _2491
REMARK  735  A    between atoms: _2491  and  _2492
REMARK  736  A    between atoms: _2491  and  _2493
REMARK  737  A    between atoms: _2501  and  _2502
REMARK  738  A    between atoms: _2502  and  _2503
REMARK  739  A    between atoms: _2508  and  _2509
REMARK  740  A    between atoms: _2509  and  _2510
REMARK  741  A    between atoms: _2509  and  _2512
REMARK  742  A    between atoms: _2512  and  _2513
REMARK  743  A    between atoms: _2513  and  _2514
REMARK  744  A    between atoms: _2524  and  _2525
REMARK  745  A    between atoms: _2537  and  _2538
REMARK  746  A    between atoms: _2538  and  _2539
REMARK  747  A    between atoms: _2538  and  _2541
REMARK  748  A    between atoms: _2541  and  _2542
REMARK  749  A    between atoms: _2542  and  _2543
REMARK  750  A    between atoms: _2543  and  _2544
REMARK  751  A    between atoms: _2554  and  _2555
REMARK  752  A    between atoms: _2555  and  _2556
REMARK  753  A    between atoms: _2561  and  _2562
REMARK  754  A    between atoms: _2562  and  _2563
REMARK  755  A    between atoms: _2562  and  _2565
REMARK  756  A    between atoms: _2565  and  _2566
REMARK  757  A    between atoms: _2566  and  _2567
REMARK  758  A    between atoms: _2567  and  _2568
REMARK  759  A    between atoms: _2585  and  _2586
REMARK  760  A    between atoms: _2586  and  _2587
REMARK  761  A    between atoms: _2592  and  _2593
REMARK  762  A    between atoms: _2593  and  _2594
REMARK  763  A    between atoms: _2593  and  _2596
REMARK  764  A    between atoms: _2596  and  _2597
REMARK  765  A    between atoms: _2596  and  _2598
REMARK  766  A    between atoms: _2606  and  _2607
REMARK  767  A    between atoms: _2607  and  _2608
REMARK  768  A    between atoms: _2607  and  _2610
REMARK  769  A    between atoms: _2610  and  _2611
REMARK  770  A    between atoms: _2611  and  _2612
REMARK  771  A    between atoms: _2612  and  _2613
REMARK  772  A    between atoms: _2613  and  _2614
REMARK  773  A    between atoms: _2628  and  _2629
REMARK  774  A    between atoms: _2629  and  _2630
REMARK  775  A    between atoms: _2629  and  _2632
REMARK  776  A    between atoms: _2632  and  _2633
REMARK  777  A    between atoms: _2632  and  _2634
REMARK  778  A    between atoms: _2644  and  _2645
REMARK  779  A    between atoms: _2645  and  _2646
REMARK  780  A    between atoms: _2645  and  _2648
REMARK  781  A    between atoms: _2648  and  _2649
REMARK  782  A    between atoms: _2648  and  _2650
REMARK  783  A    between atoms: _2649  and  _2651
REMARK  784  A    between atoms: _2663  and  _2664
REMARK  785  A    between atoms: _2664  and  _2665
REMARK  786  A    between atoms: _2664  and  _2667
REMARK  787  A    between atoms: _2667  and  _2668
REMARK  788  A    between atoms: _2668  and  _2669
REMARK  789  A    between atoms: _2668  and  _2670
REMARK  790  A    between atoms: _2682  and  _2683
REMARK  791  A    between atoms: _2683  and  _2684
REMARK  792  A    between atoms: _2683  and  _2686
REMARK  793  A    between atoms: _2686  and  _2687
REMARK  794  A    between atoms: _2699  and  _2700
REMARK  795  A    between atoms: _2700  and  _2701
REMARK  796  A    between atoms: _2700  and  _2703
REMARK  797  A    between atoms: _2703  and  _2704
REMARK  798  A    between atoms: _2704  and  _2705
REMARK  799  A    between atoms: _2704  and  _2706
REMARK  800  A    between atoms: _2718  and  _2719
REMARK  801  A    between atoms: _2719  and  _2720
REMARK  802  A    between atoms: _2719  and  _2722
REMARK  803  A    between atoms: _2722  and  _2723
REMARK  804  A    between atoms: _2723  and  _2724
REMARK  805  A    between atoms: _2724  and  _2725
REMARK  806  A    between atoms: _2725  and  _2726
REMARK  807  A    between atoms: _2740  and  _2741
REMARK  808  A    between atoms: _2741  and  _2742
REMARK  809  A    between atoms: _2741  and  _2744
REMARK  810  A    between atoms: _2744  and  _2745
REMARK  811  A    between atoms: _2745  and  _2746
REMARK  812  A    between atoms: _2755  and  _2756
REMARK  813  A    between atoms: _2756  and  _2757
REMARK  814  A    between atoms: _2756  and  _2759
REMARK  815  A    between atoms: _2759  and  _2760
REMARK  816  A    between atoms: _2767  and  _2768
REMARK  817  A    between atoms: _2768  and  _2769
REMARK  818  A    between atoms: _2768  and  _2771
REMARK  819  A    between atoms: _2771  and  _2772
REMARK  820  A    between atoms: _2772  and  _2773
REMARK  821  A    between atoms: _2784  and  _2785
REMARK  822  A    between atoms: _2785  and  _2786
REMARK  823  A    between atoms: _2785  and  _2788
REMARK  824  A    between atoms: _2788  and  _2789
REMARK  825  A    between atoms: _2788  and  _2790
REMARK  826  A    between atoms: _2798  and  _2799
REMARK  827  A    between atoms: _2799  and  _2800
REMARK  828  A    between atoms: _2799  and  _2802
REMARK  829  A    between atoms: _2802  and  _2803
REMARK  830  A    between atoms: _2803  and  _2804
REMARK  831  A    between atoms: _2813  and  _2814
REMARK  832  A    between atoms: _2814  and  _2815
REMARK  833  A    between atoms: _2814  and  _2817
REMARK  834  A    between atoms: _2817  and  _2818
REMARK  835  A    between atoms: _2823  and  _2824
REMARK  836  A    between atoms: _2834  and  _2835
REMARK  837  A    between atoms: _2835  and  _2838
REMARK  838  A    between atoms: _2838  and  _2839
REMARK  839  A    between atoms: _2839  and  _2840
REMARK  840  A    between atoms: _2839  and  _2841
REMARK  841  A    between atoms: _2884  and  _2885
REMARK  842  A    between atoms: _2884  and  _2887
REMARK  843  A    between atoms: _2887  and  _2888
REMARK  844  A    between atoms: _2888  and  _2889
REMARK  845  A    between atoms: _2899  and  _2900
REMARK  846  A    between atoms: _2900  and  _2901
REMARK  847  A    between atoms: _2900  and  _2903
REMARK  848  A    between atoms: _2903  and  _2904
REMARK  849  A    between atoms: _2904  and  _2905
REMARK  850  A    between atoms: _2905  and  _2906
REMARK  851  A    between atoms: _2923  and  _2924
REMARK  852  A    between atoms: _2924  and  _2925
REMARK  853  A    between atoms: _2924  and  _2927
REMARK  854  A    between atoms: _2927  and  _2928
REMARK  855  A    between atoms: _2928  and  _2929
REMARK  856  A    between atoms: _2929  and  _2930
REMARK  857  A    between atoms: _2947  and  _2948
REMARK  858  A    between atoms: _2948  and  _2949
REMARK  859  A    between atoms: _2948  and  _2951
REMARK  860  A    between atoms: _2951  and  _2952
REMARK  861  A    between atoms: _2951  and  _2953
REMARK  862  A    between atoms: _2952  and  _2954
REMARK  863  A    between atoms: _2966  and  _2967
REMARK  864  A    between atoms: _2967  and  _2968
REMARK  865  A    between atoms: _2967  and  _2970
REMARK  866  A    between atoms: _2970  and  _2971
REMARK  867  A    between atoms: _2971  and  _2972
REMARK  868  A    between atoms: _2972  and  _2973
REMARK  869  A    between atoms: _2973  and  _2974
REMARK  870  A    between atoms: _2988  and  _2989
REMARK  871  A    between atoms: _2989  and  _2990
REMARK  872  A    between atoms: _2989  and  _2992
REMARK  873  A    between atoms: _2992  and  _2993
REMARK  874  A    between atoms: _2993  and  _2994
REMARK  875  A    between atoms: _3003  and  _3004
REMARK  876  A    between atoms: _3004  and  _3005
REMARK  877  A    between atoms: _3004  and  _3007
REMARK  878  A    between atoms: _3007  and  _3008
REMARK  879  A    between atoms: _3007  and  _3009
REMARK  880  A    between atoms: _3008  and  _3010
REMARK  881  A    between atoms: _3022  and  _3023
REMARK  882  A    between atoms: _3023  and  _3024
REMARK  883  A    between atoms: _3023  and  _3026
REMARK  884  A    between atoms: _3026  and  _3027
REMARK  885  A    between atoms: _3026  and  _3028
REMARK  886  A    between atoms: _3038  and  _3039
REMARK  887  A    between atoms: _3039  and  _3040
REMARK  888  A    between atoms: _3039  and  _3042
REMARK  889  A    between atoms: _3042  and  _3043
REMARK  890  A    between atoms: _3043  and  _3044
REMARK  891  A    between atoms: _3044  and  _3045
REMARK  892  A    between atoms: _3045  and  _3046
REMARK  893  A    between atoms: _3060  and  _3061
REMARK  894  A    between atoms: _3061  and  _3062
REMARK  895  A    between atoms: _3061  and  _3064
REMARK  896  A    between atoms: _3064  and  _3065
REMARK  897  A    between atoms: _3065  and  _3066
REMARK  898  A    between atoms: _3066  and  _3067
REMARK  899  A    between atoms: _3067  and  _3068
REMARK  900  A    between atoms: _3082  and  _3083
REMARK  901  A    between atoms: _3083  and  _3084
REMARK  902  A    between atoms: _3083  and  _3086
REMARK  903  A    between atoms: _3086  and  _3087
REMARK  904  A    between atoms: _3099  and  _3100
REMARK  905  A    between atoms: _3100  and  _3101
REMARK  906  A    between atoms: _3100  and  _3103
REMARK  907  A    between atoms: _3103  and  _3104
REMARK  908  A    between atoms: _3110  and  _3111
REMARK  909  A    between atoms: _3111  and  _3112
REMARK  910  A    between atoms: _3111  and  _3114
REMARK  911  A    between atoms: _3114  and  _3115
REMARK  912  A    between atoms: _3115  and  _3116
REMARK  913  A    between atoms: _3127  and  _3128
REMARK  914  A    between atoms: _3128  and  _3129
REMARK  915  A    between atoms: _3128  and  _3131
REMARK  916  A    between atoms: _3131  and  _3132
REMARK  917  A    between atoms: _3147  and  _3148
REMARK  918  A    between atoms: _3148  and  _3149
REMARK  919  A    between atoms: _3148  and  _3151
REMARK  920  A    between atoms: _3151  and  _3152
REMARK  921  A    between atoms: _3151  and  _3153
REMARK  922  A    between atoms: _3152  and  _3154
REMARK  923  A    between atoms: _3166  and  _3167
REMARK  924  A    between atoms: _3167  and  _3168
REMARK  925  A    between atoms: _3173  and  _3174
REMARK  926  A    between atoms: _3174  and  _3175
REMARK  927  A    between atoms: _3174  and  _3177
REMARK  928  A    between atoms: _3177  and  _3178
REMARK  929  A    between atoms: _3183  and  _3184
REMARK  930  A    between atoms: _3195  and  _3196
REMARK  931  A    between atoms: _3208  and  _3209
REMARK  932  A    between atoms: _3209  and  _3210
REMARK  933  A    between atoms: _3209  and  _3212
REMARK  934  A    between atoms: _3212  and  _3213
REMARK  935  A    between atoms: _3212  and  _3214
REMARK  936  A    between atoms: _3213  and  _3215
REMARK  937  A    between atoms: _3227  and  _3228
REMARK  938  A    between atoms: _3228  and  _3229
REMARK  939  A    between atoms: _3228  and  _3231
REMARK  940  A    between atoms: _3231  and  _3232
REMARK  941  A    between atoms: _3231  and  _3233
REMARK  942  A    between atoms: _3241  and  _3242
REMARK  943  A    between atoms: _3242  and  _3243
REMARK  944  A    between atoms: _3242  and  _3245
REMARK  945  A    between atoms: _3245  and  _3246
REMARK  946  A    between atoms: _3246  and  _3247
REMARK  947  A    between atoms: _3246  and  _3248
REMARK  948  A    between atoms: _3260  and  _3261
REMARK  949  A    between atoms: _3261  and  _3262
REMARK  950  A    between atoms: _3261  and  _3264
REMARK  951  A    between atoms: _3264  and  _3265
REMARK  952  A    between atoms: _3280  and  _3281
REMARK  953  A    between atoms: _3281  and  _3282
REMARK  954  A    between atoms: _3281  and  _3284
REMARK  955  A    between atoms: _3284  and  _3285
REMARK  956  A    between atoms: _3284  and  _3286
REMARK  957  A    between atoms: _3296  and  _3297
REMARK  958  A    between atoms: _3297  and  _3298
REMARK  959  A    between atoms: _3297  and  _3300
REMARK  960  A    between atoms: _3300  and  _3301
REMARK  961  A    between atoms: _3301  and  _3302
REMARK                            x       y       z     vdW  Elec       q    Type
REMARK                         _______ _______ _______ _____ _____    ______ ____
ROOT
ATOM      1  O   HOH     1       7.200  39.753  38.382  0.00  0.00    +0.000 OA
ENDROOT
TORSDOF 0
REMARK  Name = /Users/mlugowska/PhD/ML_residence_time_prediction/protein_files/5J20_protein.pdb
REMARK  961 active torsions:
REMARK  status: ('A' for Active; 'I' for Inactive)
REMARK    1  A    between atoms: _2  and  _3
REMARK    2  A    between atoms: _2  and  _5
REMARK    3  A    between atoms: _10  and  _11
REMARK    4  A    between atoms: _11  and  _12
REMARK    5  A    between atoms: _11  and  _14
REMARK    6  A    between atoms: _14  and  _15
REMARK    7  A    between atoms: _14  and  _16
REMARK    8  A    between atoms: _26  and  _27
REMARK    9  A    between atoms: _27  and  _28
REMARK   10  A    between atoms: _27  and  _30
REMARK   11  A    between atoms: _30  and  _31
REMARK   12  A    between atoms: _31  and  _32
REMARK   13  A    between atoms: _41  and  _42
REMARK   14  A    between atoms: _42  and  _43
REMARK   15  A    between atoms: _42  and  _45
REMARK   16  A    between atoms: _45  and  _46
REMARK   17  A    between atoms: _45  and  _47
REMARK   18  A    between atoms: _55  and  _56
REMARK   19  A    between atoms: _56  and  _57
REMARK   20  A    between atoms: _56  and  _59
REMARK   21  A    between atoms: _59  and  _60
REMARK   22  A    between atoms: _75  and  _76
REMARK   23  A    between atoms: _76  and  _77
REMARK   24  A    between atoms: _76  and  _79
REMARK   25  A    between atoms: _85  and  _86
REMARK   26  A    between atoms: _86  and  _87
REMARK   27  A    between atoms: _86  and  _89
REMARK   28  A    between atoms: _89  and  _90
REMARK   29  A    between atoms: _105  and  _106
REMARK   30  A    between atoms: _106  and  _107
REMARK   31  A    between atoms: _106  and  _109
REMARK   32  A    between atoms: _109  and  _110
REMARK   33  A    between atoms: _110  and  _111
REMARK   34  A    between atoms: _122  and  _123
REMARK   35  A    between atoms: _123  and  _124
REMARK   36  A    between atoms: _123  and  _126
REMARK   37  A    between atoms: _132  and  _133
REMARK   38  A    between atoms: _133  and  _134
REMARK   39  A    between atoms: _133  and  _136
REMARK   40  A    between atoms: _136  and  _137
REMARK   41  A    between atoms: _137  and  _138
REMARK   42  A    between atoms: _147  and  _148
REMARK   43  A    between atoms: _148  and  _149
REMARK   44  A    between atoms: _148  and  _151
REMARK   45  A    between atoms: _151  and  _152
REMARK   46  A    between atoms: _151  and  _153
REMARK   47  A    between atoms: _152  and  _154
REMARK   48  A    between atoms: _166  and  _167
REMARK   49  A    between atoms: _167  and  _168
REMARK   50  A    between atoms: _167  and  _170
REMARK   51  A    between atoms: _176  and  _177
REMARK   52  A    between atoms: _177  and  _178
REMARK   53  A    between atoms: _177  and  _180
REMARK   54  A    between atoms: _180  and  _181
REMARK   55  A    between atoms: _181  and  _182
REMARK   56  A    between atoms: _193  and  _194
REMARK   57  A    between atoms: _194  and  _195
REMARK   58  A    between atoms: _194  and  _197
REMARK   59  A    between atoms: _197  and  _198
REMARK   60  A    between atoms: _198  and  _199
REMARK   61  A    between atoms: _198  and  _200
REMARK   62  A    between atoms: _212  and  _213
REMARK   63  A    between atoms: _213  and  _214
REMARK   64  A    between atoms: _213  and  _216
REMARK   65  A    between atoms: _216  and  _217
REMARK   66  A    between atoms: _217  and  _218
REMARK   67  A    between atoms: _218  and  _219
REMARK   68  A    between atoms: _229  and  _230
REMARK   69  A    between atoms: _230  and  _231
REMARK   70  A    between atoms: _230  and  _233
REMARK   71  A    between atoms: _233  and  _234
REMARK   72  A    between atoms: _240  and  _241
REMARK   73  A    between atoms: _241  and  _242
REMARK   74  A    between atoms: _241  and  _244
REMARK   75  A    between atoms: _244  and  _245
REMARK   76  A    between atoms: _245  and  _246
REMARK   77  A    between atoms: _245  and  _247
REMARK   78  A    between atoms: _259  and  _260
REMARK   79  A    between atoms: _260  and  _261
REMARK   80  A    between atoms: _260  and  _263
REMARK   81  A    between atoms: _263  and  _264
REMARK   82  A    between atoms: _263  and  _265
REMARK   83  A    between atoms: _264  and  _266
REMARK   84  A    between atoms: _278  and  _279
REMARK   85  A    between atoms: _279  and  _280
REMARK   86  A    between atoms: _279  and  _282
REMARK   87  A    between atoms: _282  and  _283
REMARK   88  A    between atoms: _282  and  _284
REMARK   89  A    between atoms: _283  and  _285
REMARK   90  A    between atoms: _297  and  _298
REMARK   91  A    between atoms: _298  and  _299
REMARK   92  A    between atoms: _298  and  _301
REMARK   93  A    between atoms: _301  and  _302
REMARK   94  A    between atoms: _311  and  _312
REMARK   95  A    between atoms: _312  and  _313
REMARK   96  A    between atoms: _312  and  _315
REMARK   97  A    between atoms: _315  and  _316
REMARK   98  A    between atoms: _315  and  _317
REMARK   99  A    between atoms: _325  and  _326
REMARK  100  A    between atoms: _326  and  _327
REMARK  101  A    between atoms: _326  and  _329
REMARK  102  A    between atoms: _329  and  _330
REMARK  103  A    between atoms: _345  and  _346
REMARK  104  A    between atoms: _346  and  _347
REMARK  105  A    between atoms: _346  and  _349
REMARK  106  A    between atoms: _349  and  _350
REMARK  107  A    between atoms: _355  and  _356
REMARK  108  A    between atoms: _366  and  _367
REMARK  109  A    between atoms: _367  and  _368
REMARK  110  A    between atoms: _367  and  _370
REMARK  111  A    between atoms: _370  and  _371
REMARK  112  A    between atoms: _377  and  _378
REMARK  113  A    between atoms: _378  and  _379
REMARK  114  A    between atoms: _378  and  _381
REMARK  115  A    between atoms: _381  and  _382
REMARK  116  A    between atoms: _391  and  _392
REMARK  117  A    between atoms: _392  and  _393
REMARK  118  A    between atoms: _392  and  _395
REMARK  119  A    between atoms: _395  and  _396
REMARK  120  A    between atoms: _396  and  _397
REMARK  121  A    between atoms: _397  and  _398
REMARK  122  A    between atoms: _398  and  _399
REMARK  123  A    between atoms: _413  and  _414
REMARK  124  A    between atoms: _414  and  _415
REMARK  125  A    between atoms: _414  and  _417
REMARK  126  A    between atoms: _417  and  _418
REMARK  127  A    between atoms: _418  and  _419
REMARK  128  A    between atoms: _428  and  _429
REMARK  129  A    between atoms: _429  and  _430
REMARK  130  A    between atoms: _429  and  _432
REMARK  131  A    between atoms: _432  and  _433
REMARK  132  A    between atoms: _432  and  _434
REMARK  133  A    between atoms: _433  and  _435
REMARK  134  A    between atoms: _447  and  _448
REMARK  135  A    between atoms: _448  and  _449
REMARK  136  A    between atoms: _448  and  _451
REMARK  137  A    between atoms: _451  and  _452
REMARK  138  A    between atoms: _467  and  _468
REMARK  139  A    between atoms: _468  and  _469
REMARK  140  A    between atoms: _468  and  _471
REMARK  141  A    between atoms: _471  and  _472
REMARK  142  A    between atoms: _472  and  _473
REMARK  143  A    between atoms: _472  and  _474
REMARK  144  A    between atoms: _486  and  _487
REMARK  145  A    between atoms: _487  and  _488
REMARK  146  A    between atoms: _487  and  _490
REMARK  147  A    between atoms: _490  and  _491
REMARK  148  A    between atoms: _491  and  _492
REMARK  149  A    between atoms: _492  and  _493
REMARK  150  A    between atoms: _510  and  _511
REMARK  151  A    between atoms: _511  and  _512
REMARK  152  A    between atoms: _511  and  _514
REMARK  153  A    between atoms: _514  and  _515
REMARK  154  A    between atoms: _515  and  _516
REMARK  155  A    between atoms: _525  and  _526
REMARK  156  A    between atoms: _526  and  _527
REMARK  157  A    between atoms: _526  and  _529
REMARK  158  A    between atoms: _529  and  _530
REMARK  159  A    between atoms: _530  and  _531
REMARK  160  A    between atoms: _530  and  _532
REMARK  161  A    between atoms: _544  and  _545
REMARK  162  A    between atoms: _545  and  _546
REMARK  163  A    between atoms: _545  and  _548
REMARK  164  A    between atoms: _548  and  _549
REMARK  165  A    between atoms: _548  and  _550
REMARK  166  A    between atoms: _549  and  _551
REMARK  167  A    between atoms: _563  and  _564
REMARK  168  A    between atoms: _564  and  _565
REMARK  169  A    between atoms: _564  and  _567
REMARK  170  A    between atoms: _567  and  _568
REMARK  171  A    between atoms: _574  and  _575
REMARK  172  A    between atoms: _575  and  _576
REMARK  173  A    between atoms: _575  and  _578
REMARK  174  A    between atoms: _578  and  _579
REMARK  175  A    between atoms: _588  and  _589
REMARK  176  A    between atoms: _589  and  _590
REMARK  177  A    between atoms: _589  and  _592
REMARK  178  A    between atoms: _592  and  _593
REMARK  179  A    between atoms: _599  and  _600
REMARK  180  A    between atoms: _600  and  _601
REMARK  181  A    between atoms: _600  and  _603
REMARK  182  A    between atoms: _603  and  _604
REMARK  183  A    between atoms: _610  and  _611
REMARK  184  A    between atoms: _611  and  _612
REMARK  185  A    between atoms: _611  and  _614
REMARK  186  A    between atoms: _614  and  _615
REMARK  187  A    between atoms: _622  and  _623
REMARK  188  A    between atoms: _623  and  _624
REMARK  189  A    between atoms: _623  and  _626
REMARK  190  A    between atoms: _632  and  _633
REMARK  191  A    between atoms: _633  and  _634
REMARK  192  A    between atoms: _633  and  _636
REMARK  193  A    between atoms: _636  and  _637
REMARK  194  A    between atoms: _637  and  _638
REMARK  195  A    between atoms: _637  and  _639
REMARK  196  A    between atoms: _651  and  _652
REMARK  197  A    between atoms: _652  and  _653
REMARK  198  A    between atoms: _652  and  _655
REMARK  199  A    between atoms: _655  and  _656
REMARK  200  A    between atoms: _663  and  _664
REMARK  201  A    between atoms: _664  and  _665
REMARK  202  A    between atoms: _664  and  _667
REMARK  203  A    between atoms: _667  and  _668
REMARK  204  A    between atoms: _668  and  _669
REMARK  205  A    between atoms: _669  and  _670
REMARK  206  A    between atoms: _670  and  _671
REMARK  207  A    between atoms: _685  and  _686
REMARK  208  A    between atoms: _686  and  _687
REMARK  209  A    between atoms: _686  and  _689
REMARK  210  A    between atoms: _689  and  _690
REMARK  211  A    between atoms: _689  and  _691
REMARK  212  A    between atoms: _690  and  _692
REMARK  213  A    between atoms: _704  and  _705
REMARK  214  A    between atoms: _705  and  _706
REMARK  215  A    between atoms: _705  and  _708
REMARK  216  A    between atoms: _708  and  _709
REMARK  217  A    between atoms: _709  and  _710
REMARK  218  A    between atoms: _710  and  _711
REMARK  219  A    between atoms: _728  and  _729
REMARK  220  A    between atoms: _729  and  _730
REMARK  221  A    between atoms: _729  and  _732
REMARK  222  A    between atoms: _732  and  _733
REMARK  223  A    between atoms: _738  and  _739
REMARK  224  A    between atoms: _749  and  _750
REMARK  225  A    between atoms: _750  and  _751
REMARK  226  A    between atoms: _750  and  _753
REMARK  227  A    between atoms: _753  and  _754
REMARK  228  A    between atoms: _754  and  _755
REMARK  229  A    between atoms: _764  and  _765
REMARK  230  A    between atoms: _765  and  _766
REMARK  231  A    between atoms: _765  and  _768
REMARK  232  A    between atoms: _772  and  _773
REMARK  233  A    between atoms: _773  and  _774
REMARK  234  A    between atoms: _773  and  _776
REMARK  235  A    between atoms: _776  and  _777
REMARK  236  A    between atoms: _777  and  _778
REMARK  237  A    between atoms: _777  and  _779
REMARK  238  A    between atoms: _791  and  _792
REMARK  239  A    between atoms: _792  and  _793
REMARK  240  A    between atoms: _792  and  _795
REMARK  241  A    between atoms: _795  and  _796
REMARK  242  A    between atoms: _795  and  _797
REMARK  243  A    between atoms: _805  and  _806
REMARK  244  A    between atoms: _806  and  _807
REMARK  245  A    between atoms: _806  and  _809
REMARK  246  A    between atoms: _809  and  _810
REMARK  247  A    between atoms: _818  and  _819
REMARK  248  A    between atoms: _831  and  _832
REMARK  249  A    between atoms: _832  and  _833
REMARK  250  A    between atoms: _832  and  _835
REMARK  251  A    between atoms: _835  and  _836
REMARK  252  A    between atoms: _842  and  _843
REMARK  253  A    between atoms: _843  and  _844
REMARK  254  A    between atoms: _843  and  _846
REMARK  255  A    between atoms: _846  and  _847
REMARK  256  A    between atoms: _847  and  _848
REMARK  257  A    between atoms: _848  and  _849
REMARK  258  A    between atoms: _849  and  _850
REMARK  259  A    between atoms: _864  and  _865
REMARK  260  A    between atoms: _865  and  _866
REMARK  261  A    between atoms: _865  and  _868
REMARK  262  A    between atoms: _868  and  _869
REMARK  263  A    between atoms: _869  and  _870
REMARK  264  A    between atoms: _869  and  _871
REMARK  265  A    between atoms: _883  and  _884
REMARK  266  A    between atoms: _884  and  _885
REMARK  267  A    between atoms: _884  and  _887
REMARK  268  A    between atoms: _887  and  _888
REMARK  269  A    between atoms: _895  and  _896
REMARK  270  A    between atoms: _896  and  _897
REMARK  271  A    between atoms: _896  and  _899
REMARK  272  A    between atoms: _899  and  _900
REMARK  273  A    between atoms: _906  and  _907
REMARK  274  A    between atoms: _907  and  _908
REMARK  275  A    between atoms: _913  and  _914
REMARK  276  A    between atoms: _914  and  _915
REMARK  277  A    between atoms: _914  and  _917
REMARK  278  A    between atoms: _917  and  _918
REMARK  279  A    between atoms: _918  and  _919
REMARK  280  A    between atoms: _919  and  _920
REMARK  281  A    between atoms: _920  and  _921
REMARK  282  A    between atoms: _935  and  _936
REMARK  283  A    between atoms: _936  and  _937
REMARK  284  A    between atoms: _936  and  _939
REMARK  285  A    between atoms: _939  and  _940
REMARK  286  A    between atoms: _940  and  _941
REMARK  287  A    between atoms: _950  and  _951
REMARK  288  A    between atoms: _951  and  _952
REMARK  289  A    between atoms: _951  and  _954
REMARK  290  A    between atoms: _954  and  _955
REMARK  291  A    between atoms: _955  and  _956
REMARK  292  A    between atoms: _955  and  _957
REMARK  293  A    between atoms: _969  and  _970
REMARK  294  A    between atoms: _970  and  _971
REMARK  295  A    between atoms: _970  and  _973
REMARK  296  A    between atoms: _973  and  _974
REMARK  297  A    between atoms: _986  and  _987
REMARK  298  A    between atoms: _987  and  _988
REMARK  299  A    between atoms: _987  and  _990
REMARK  300  A    between atoms: _990  and  _991
REMARK  301  A    between atoms: _990  and  _992
REMARK  302  A    between atoms: _991  and  _993
REMARK  303  A    between atoms: _1005  and  _1006
REMARK  304  A    between atoms: _1006  and  _1007
REMARK  305  A    between atoms: _1006  and  _1009
REMARK  306  A    between atoms: _1009  and  _1010
REMARK  307  A    between atoms: _1019  and  _1020
REMARK  308  A    between atoms: _1020  and  _1021
REMARK  309  A    between atoms: _1020  and  _1023
REMARK  310  A    between atoms: _1023  and  _1024
REMARK  311  A    between atoms: _1024  and  _1025
REMARK  312  A    between atoms: _1024  and  _1026
REMARK  313  A    between atoms: _1038  and  _1039
REMARK  314  A    between atoms: _1039  and  _1040
REMARK  315  A    between atoms: _1039  and  _1042
REMARK  316  A    between atoms: _1042  and  _1043
REMARK  317  A    between atoms: _1042  and  _1044
REMARK  318  A    between atoms: _1043  and  _1045
REMARK  319  A    between atoms: _1058  and  _1059
REMARK  320  A    between atoms: _1071  and  _1072
REMARK  321  A    between atoms: _1072  and  _1073
REMARK  322  A    between atoms: _1072  and  _1075
REMARK  323  A    between atoms: _1075  and  _1076
REMARK  324  A    between atoms: _1085  and  _1086
REMARK  325  A    between atoms: _1086  and  _1087
REMARK  326  A    between atoms: _1086  and  _1089
REMARK  327  A    between atoms: _1089  and  _1090
REMARK  328  A    between atoms: _1090  and  _1091
REMARK  329  A    between atoms: _1091  and  _1092
REMARK  330  A    between atoms: _1092  and  _1093
REMARK  331  A    between atoms: _1107  and  _1108
REMARK  332  A    between atoms: _1108  and  _1109
REMARK  333  A    between atoms: _1108  and  _1111
REMARK  334  A    between atoms: _1111  and  _1112
REMARK  335  A    between atoms: _1112  and  _1113
REMARK  336  A    between atoms: _1124  and  _1125
REMARK  337  A    between atoms: _1125  and  _1126
REMARK  338  A    between atoms: _1125  and  _1128
REMARK  339  A    between atoms: _1128  and  _1129
REMARK  340  A    between atoms: _1136  and  _1137
REMARK  341  A    between atoms: _1137  and  _1138
REMARK  342  A    between atoms: _1137  and  _1140
REMARK  343  A    between atoms: _1140  and  _1141
REMARK  344  A    between atoms: _1141  and  _1142
REMARK  345  A    between atoms: _1142  and  _1143
REMARK  346  A    between atoms: _1160  and  _1161
REMARK  347  A    between atoms: _1161  and  _1162
REMARK  348  A    between atoms: _1161  and  _1164
REMARK  349  A    between atoms: _1164  and  _1165
REMARK  350  A    between atoms: _1164  and  _1166
REMARK  351  A    between atoms: _1174  and  _1175
REMARK  352  A    between atoms: _1175  and  _1176
REMARK  353  A    between atoms: _1175  and  _1178
REMARK  354  A    between atoms: _1178  and  _1179
REMARK  355  A    between atoms: _1179  and  _1180
REMARK  356  A    between atoms: _1179  and  _1181
REMARK  357  A    between atoms: _1193  and  _1194
REMARK  358  A    between atoms: _1194  and  _1195
REMARK  359  A    between atoms: _1194  and  _1197
REMARK  360  A    between atoms: _1197  and  _1198
REMARK  361  A    between atoms: _1197  and  _1199
REMARK  362  A    between atoms: _1207  and  _1208
REMARK  363  A    between atoms: _1208  and  _1209
REMARK  364  A    between atoms: _1208  and  _1211
REMARK  365  A    between atoms: _1211  and  _1212
REMARK  366  A    between atoms: _1211  and  _1213
REMARK  367  A    between atoms: _1212  and  _1214
REMARK  368  A    between atoms: _1226  and  _1227
REMARK  369  A    between atoms: _1227  and  _1228
REMARK  370  A    between atoms: _1227  and  _1230
REMARK  371  A    between atoms: _1230  and  _1231
REMARK  372  A    between atoms: _1230  and  _1232
REMARK  373  A    between atoms: _1242  and  _1243
REMARK  374  A    between atoms: _1243  and  _1244
REMARK  375  A    between atoms: _1243  and  _1246
REMARK  376  A    between atoms: _1246  and  _1247
REMARK  377  A    between atoms: _1254  and  _1255
REMARK  378  A    between atoms: _1255  and  _1256
REMARK  379  A    between atoms: _1255  and  _1258
REMARK  380  A    between atoms: _1258  and  _1259
REMARK  381  A    between atoms: _1258  and  _1260
REMARK  382  A    between atoms: _1268  and  _1269
REMARK  383  A    between atoms: _1269  and  _1270
REMARK  384  A    between atoms: _1275  and  _1276
REMARK  385  A    between atoms: _1276  and  _1277
REMARK  386  A    between atoms: _1276  and  _1279
REMARK  387  A    between atoms: _1279  and  _1280
REMARK  388  A    between atoms: _1279  and  _1281
REMARK  389  A    between atoms: _1280  and  _1282
REMARK  390  A    between atoms: _1294  and  _1295
REMARK  391  A    between atoms: _1295  and  _1296
REMARK  392  A    between atoms: _1301  and  _1302
REMARK  393  A    between atoms: _1302  and  _1303
REMARK  394  A    between atoms: _1302  and  _1305
REMARK  395  A    between atoms: _1305  and  _1306
REMARK  396  A    between atoms: _1306  and  _1307
REMARK  397  A    between atoms: _1307  and  _1308
REMARK  398  A    between atoms: _1318  and  _1319
REMARK  399  A    between atoms: _1319  and  _1320
REMARK  400  A    between atoms: _1319  and  _1322
REMARK  401  A    between atoms: _1322  and  _1323
REMARK  402  A    between atoms: _1322  and  _1324
REMARK  403  A    between atoms: _1332  and  _1333
REMARK  404  A    between atoms: _1333  and  _1334
REMARK  405  A    between atoms: _1333  and  _1336
REMARK  406  A    between atoms: _1336  and  _1337
REMARK  407  A    between atoms: _1337  and  _1338
REMARK  408  A    between atoms: _1338  and  _1339
REMARK  409  A    between atoms: _1339  and  _1340
REMARK  410  A    between atoms: _1354  and  _1355
REMARK  411  A    between atoms: _1355  and  _1356
REMARK  412  A    between atoms: _1355  and  _1358
REMARK  413  A    between atoms: _1364  and  _1365
REMARK  414  A    between atoms: _1365  and  _1366
REMARK  415  A    between atoms: _1365  and  _1368
REMARK  416  A    between atoms: _1368  and  _1369
REMARK  417  A    between atoms: _1376  and  _1377
REMARK  418  A    between atoms: _1377  and  _1378
REMARK  419  A    between atoms: _1377  and  _1380
REMARK  420  A    between atoms: _1380  and  _1381
REMARK  421  A    between atoms: _1381  and  _1382
REMARK  422  A    between atoms: _1381  and  _1383
REMARK  423  A    between atoms: _1395  and  _1396
REMARK  424  A    between atoms: _1396  and  _1399
REMARK  425  A    between atoms: _1399  and  _1400
REMARK  426  A    between atoms: _1399  and  _1401
REMARK  427  A    between atoms: _1400  and  _1402
REMARK  428  A    between atoms: _1422  and  _1425
REMARK  429  A    between atoms: _1424  and  _1428
REMARK  430  A    between atoms: _1425  and  _1427
REMARK  431  A    between atoms: _1443  and  _1444
REMARK  432  A    between atoms: _1443  and  _1446
REMARK  433  A    between atoms: _1446  and  _1447
REMARK  434  A    between atoms: _1457  and  _1458
REMARK  435  A    between atoms: _1458  and  _1459
REMARK  436  A    between atoms: _1458  and  _1461
REMARK  437  A    between atoms: _1461  and  _1462
REMARK  438  A    between atoms: _1462  and  _1463
REMARK  439  A    between atoms: _1462  and  _1464
REMARK  440  A    between atoms: _1476  and  _1477
REMARK  441  A    between atoms: _1477  and  _1478
REMARK  442  A    between atoms: _1483  and  _1484
REMARK  443  A    between atoms: _1484  and  _1485
REMARK  444  A    between atoms: _1484  and  _1487
REMARK  445  A    between atoms: _1487  and  _1488
REMARK  446  A    between atoms: _1487  and  _1489
REMARK  447  A    between atoms: _1497  and  _1498
REMARK  448  A    between atoms: _1498  and  _1499
REMARK  449  A    between atoms: _1498  and  _1501
REMARK  450  A    between atoms: _1501  and  _1502
REMARK  451  A    between atoms: _1501  and  _1503
REMARK  452  A    between atoms: _1502  and  _1504
REMARK  453  A    between atoms: _1516  and  _1517
REMARK  454  A    between atoms: _1517  and  _1518
REMARK  455  A    between atoms: _1517  and  _1520
REMARK  456  A    between atoms: _1526  and  _1527
REMARK  457  A    between atoms: _1527  and  _1528
REMARK  458  A    between atoms: _1527  and  _1530
REMARK  459  A    between atoms: _1530  and  _1531
REMARK  460  A    between atoms: _1531  and  _1532
REMARK  461  A    between atoms: _1532  and  _1533
REMARK  462  A    between atoms: _1533  and  _1534
REMARK  463  A    between atoms: _1548  and  _1549
REMARK  464  A    between atoms: _1549  and  _1550
REMARK  465  A    between atoms: _1549  and  _1552
REMARK  466  A    between atoms: _1552  and  _1553
REMARK  467  A    between atoms: _1559  and  _1560
REMARK  468  A    between atoms: _1560  and  _1561
REMARK  469  A    between atoms: _1566  and  _1567
REMARK  470  A    between atoms: _1567  and  _1568
REMARK  471  A    between atoms: _1567  and  _1570
REMARK  472  A    between atoms: _1570  and  _1571
REMARK  473  A    between atoms: _1570  and  _1572
REMARK  474  A    between atoms: _1580  and  _1581
REMARK  475  A    between atoms: _1581  and  _1582
REMARK  476  A    between atoms: _1581  and  _1584
REMARK  477  A    between atoms: _1584  and  _1585
REMARK  478  A    between atoms: _1585  and  _1586
REMARK  479  A    between atoms: _1586  and  _1587
REMARK  480  A    between atoms: _1587  and  _1588
REMARK  481  A    between atoms: _1602  and  _1603
REMARK  482  A    between atoms: _1603  and  _1604
REMARK  483  A    between atoms: _1603  and  _1606
REMARK  484  A    between atoms: _1612  and  _1613
REMARK  485  A    between atoms: _1613  and  _1614
REMARK  486  A    between atoms: _1613  and  _1616
REMARK  487  A    between atoms: _1616  and  _1617
REMARK  488  A    between atoms: _1632  and  _1633
REMARK  489  A    between atoms: _1633  and  _1634
REMARK  490  A    between atoms: _1633  and  _1636
REMARK  491  A    between atoms: _1636  and  _1637
REMARK  492  A    between atoms: _1637  and  _1638
REMARK  493  A    between atoms: _1638  and  _1639
REMARK  494  A    between atoms: _1649  and  _1650
REMARK  495  A    between atoms: _1650  and  _1651
REMARK  496  A    between atoms: _1650  and  _1653
REMARK  497  A    between atoms: _1653  and  _1654
REMARK  498  A    between atoms: _1654  and  _1655
REMARK  499  A    between atoms: _1664  and  _1665
REMARK  500  A    between atoms: _1665  and  _1666
REMARK  501  A    between atoms: _1665  and  _1668
REMARK  502  A    between atoms: _1674  and  _1675
REMARK  503  A    between atoms: _1675  and  _1676
REMARK  504  A    between atoms: _1675  and  _1678
REMARK  505  A    between atoms: _1678  and  _1679
REMARK  506  A    between atoms: _1679  and  _1680
REMARK  507  A    between atoms: _1679  and  _1681
REMARK  508  A    between atoms: _1693  and  _1694
REMARK  509  A    between atoms: _1694  and  _1695
REMARK  510  A    between atoms: _1694  and  _1697
REMARK  511  A    between atoms: _1697  and  _1698
REMARK  512  A    between atoms: _1698  and  _1699
REMARK  513  A    between atoms: _1710  and  _1711
REMARK  514  A    between atoms: _1711  and  _1712
REMARK  515  A    between atoms: _1711  and  _1714
REMARK  516  A    between atoms: _1720  and  _1721
REMARK  517  A    between atoms: _1721  and  _1722
REMARK  518  A    between atoms: _1727  and  _1728
REMARK  519  A    between atoms: _1728  and  _1729
REMARK  520  A    between atoms: _1728  and  _1731
REMARK  521  A    between atoms: _1737  and  _1738
REMARK  522  A    between atoms: _1738  and  _1739
REMARK  523  A    between atoms: _1738  and  _1741
REMARK  524  A    between atoms: _1741  and  _1742
REMARK  525  A    between atoms: _1749  and  _1750
REMARK  526  A    between atoms: _1750  and  _1751
REMARK  527  A    between atoms: _1750  and  _1753
REMARK  528  A    between atoms: _1753  and  _1754
REMARK  529  A    between atoms: _1753  and  _1755
REMARK  530  A    between atoms: _1754  and  _1756
REMARK  531  A    between atoms: _1768  and  _1769
REMARK  532  A    between atoms: _1769  and  _1772
REMARK  533  A    between atoms: _1772  and  _1773
REMARK  534  A    between atoms: _1791  and  _1793
REMARK  535  A    between atoms: _1792  and  _1794
REMARK  536  A    between atoms: _1814  and  _1815
REMARK  537  A    between atoms: _1814  and  _1817
REMARK  538  A    between atoms: _1817  and  _1818
REMARK  539  A    between atoms: _1817  and  _1819
REMARK  540  A    between atoms: _1818  and  _1820
REMARK  541  A    between atoms: _1833  and  _1834
REMARK  542  A    between atoms: _1834  and  _1835
REMARK  543  A    between atoms: _1840  and  _1841
REMARK  544  A    between atoms: _1841  and  _1842
REMARK  545  A    between atoms: _1841  and  _1844
REMARK  546  A    between atoms: _1844  and  _1845
REMARK  547  A    between atoms: _1845  and  _1846
REMARK  548  A    between atoms: _1857  and  _1858
REMARK  549  A    between atoms: _1858  and  _1859
REMARK  550  A    between atoms: _1858  and  _1861
REMARK  551  A    between atoms: _1861  and  _1862
REMARK  552  A    between atoms: _1877  and  _1878
REMARK  553  A    between atoms: _1878  and  _1879
REMARK  554  A    between atoms: _1884  and  _1885
REMARK  555  A    between atoms: _1885  and  _1886
REMARK  556  A    between atoms: _1885  and  _1888
REMARK  557  A    between atoms: _1888  and  _1889
REMARK  558  A    between atoms: _1888  and  _1890
REMARK  559  A    between atoms: _1900  and  _1901
REMARK  560  A    between atoms: _1901  and  _1902
REMARK  561  A    between atoms: _1907  and  _1908
REMARK  562  A    between atoms: _1908  and  _1909
REMARK  563  A    between atoms: _1908  and  _1911
REMARK  564  A    between atoms: _1911  and  _1912
REMARK  565  A    between atoms: _1927  and  _1928
REMARK  566  A    between atoms: _1928  and  _1929
REMARK  567  A    between atoms: _1928  and  _1931
REMARK  568  A    between atoms: _1931  and  _1932
REMARK  569  A    between atoms: _1937  and  _1938
REMARK  570  A    between atoms: _1948  and  _1949
REMARK  571  A    between atoms: _1949  and  _1950
REMARK  572  A    between atoms: _1949  and  _1952
REMARK  573  A    between atoms: _1952  and  _1953
REMARK  574  A    between atoms: _1959  and  _1960
REMARK  575  A    between atoms: _1960  and  _1961
REMARK  576  A    between atoms: _1960  and  _1963
REMARK  577  A    between atoms: _1969  and  _1970
REMARK  578  A    between atoms: _1970  and  _1971
REMARK  579  A    between atoms: _1970  and  _1973
REMARK  580  A    between atoms: _1973  and  _1974
REMARK  581  A    between atoms: _1979  and  _1980
REMARK  582  A    between atoms: _1990  and  _1991
REMARK  583  A    between atoms: _1991  and  _1992
REMARK  584  A    between atoms: _1991  and  _1994
REMARK  585  A    between atoms: _1994  and  _1995
REMARK  586  A    between atoms: _1995  and  _1996
REMARK  587  A    between atoms: _1995  and  _1997
REMARK  588  A    between atoms: _2009  and  _2010
REMARK  589  A    between atoms: _2010  and  _2011
REMARK  590  A    between atoms: _2010  and  _2013
REMARK  591  A    between atoms: _2013  and  _2014
REMARK  592  A    between atoms: _2013  and  _2015
REMARK  593  A    between atoms: _2025  and  _2026
REMARK  594  A    between atoms: _2026  and  _2027
REMARK  595  A    between atoms: _2026  and  _2029
REMARK  596  A    between atoms: _2035  and  _2036
REMARK  597  A    between atoms: _2036  and  _2037
REMARK  598  A    between atoms: _2036  and  _2039
REMARK  599  A    between atoms: _2039  and  _2040
REMARK  600  A    between atoms: _2040  and  _2041
REMARK  601  A    between atoms: _2050  and  _2051
REMARK  602  A    between atoms: _2051  and  _2052
REMARK  603  A    between atoms: _2051  and  _2054
REMARK  604  A    between atoms: _2054  and  _2055
REMARK  605  A    between atoms: _2055  and  _2056
REMARK  606  A    between atoms: _2056  and  _2057
REMARK  607  A    between atoms: _2057  and  _2058
REMARK  608  A    between atoms: _2072  and  _2073
REMARK  609  A    between atoms: _2073  and  _2074
REMARK  610  A    between atoms: _2073  and  _2076
REMARK  611  A    between atoms: _2076  and  _2077
REMARK  612  A    between atoms: _2076  and  _2078
REMARK  613  A    between atoms: _2088  and  _2089
REMARK  614  A    between atoms: _2089  and  _2090
REMARK  615  A    between atoms: _2089  and  _2092
REMARK  616  A    between atoms: _2092  and  _2093
REMARK  617  A    between atoms: _2092  and  _2094
REMARK  618  A    between atoms: _2102  and  _2103
REMARK  619  A    between atoms: _2103  and  _2104
REMARK  620  A    between atoms: _2103  and  _2106
REMARK  621  A    between atoms: _2106  and  _2107
REMARK  622  A    between atoms: _2106  and  _2108
REMARK  623  A    between atoms: _2118  and  _2119
REMARK  624  A    between atoms: _2119  and  _2120
REMARK  625  A    between atoms: _2119  and  _2122
REMARK  626  A    between atoms: _2122  and  _2123
REMARK  627  A    between atoms: _2122  and  _2124
REMARK  628  A    between atoms: _2123  and  _2125
REMARK  629  A    between atoms: _2137  and  _2138
REMARK  630  A    between atoms: _2138  and  _2139
REMARK  631  A    between atoms: _2138  and  _2141
REMARK  632  A    between atoms: _2141  and  _2142
REMARK  633  A    between atoms: _2141  and  _2143
REMARK  634  A    between atoms: _2151  and  _2152
REMARK  635  A    between atoms: _2152  and  _2153
REMARK  636  A    between atoms: _2152  and  _2155
REMARK  637  A    between atoms: _2155  and  _2156
REMARK  638  A    between atoms: _2156  and  _2157
REMARK  639  A    between atoms: _2157  and  _2158
REMARK  640  A    between atoms: _2158  and  _2159
REMARK  641  A    between atoms: _2173  and  _2174
REMARK  642  A    between atoms: _2174  and  _2175
REMARK  643  A    between atoms: _2174  and  _2177
REMARK  644  A    between atoms: _2177  and  _2178
REMARK  645  A    between atoms: _2190  and  _2191
REMARK  646  A    between atoms: _2191  and  _2192
REMARK  647  A    between atoms: _2191  and  _2194
REMARK  648  A    between atoms: _2194  and  _2195
REMARK  649  A    between atoms: _2204  and  _2205
REMARK  650  A    between atoms: _2205  and  _2206
REMARK  651  A    between atoms: _2205  and  _2208
REMARK  652  A    between atoms: _2208  and  _2209
REMARK  653  A    between atoms: _2216  and  _2217
REMARK  654  A    between atoms: _2217  and  _2218
REMARK  655  A    between atoms: _2217  and  _2220
REMARK  656  A    between atoms: _2220  and  _2221
REMARK  657  A    between atoms: _2228  and  _2229
REMARK  658  A    between atoms: _2229  and  _2230
REMARK  659  A    between atoms: _2229  and  _2232
REMARK  660  A    between atoms: _2232  and  _2233
REMARK  661  A    between atoms: _2233  and  _2234
REMARK  662  A    between atoms: _2243  and  _2244
REMARK  663  A    between atoms: _2244  and  _2245
REMARK  664  A    between atoms: _2244  and  _2247
REMARK  665  A    between atoms: _2247  and  _2248
REMARK  666  A    between atoms: _2248  and  _2249
REMARK  667  A    between atoms: _2260  and  _2261
REMARK  668  A    between atoms: _2261  and  _2262
REMARK  669  A    between atoms: _2261  and  _2264
REMARK  670  A    between atoms: _2264  and  _2265
REMARK  671  A    between atoms: _2270  and  _2271
REMARK  672  A    between atoms: _2281  and  _2282
REMARK  673  A    between atoms: _2282  and  _2283
REMARK  674  A    between atoms: _2282  and  _2285
REMARK  675  A    between atoms: _2291  and  _2292
REMARK  676  A    between atoms: _2292  and  _2293
REMARK  677  A    between atoms: _2292  and  _2295
REMARK  678  A    between atoms: _2295  and  _2296
REMARK  679  A    between atoms: _2315  and  _2316
REMARK  680  A    between atoms: _2316  and  _2317
REMARK  681  A    between atoms: _2316  and  _2319
REMARK  682  A    between atoms: _2319  and  _2320
REMARK  683  A    between atoms: _2320  and  _2321
REMARK  684  A    between atoms: _2330  and  _2331
REMARK  685  A    between atoms: _2331  and  _2332
REMARK  686  A    between atoms: _2331  and  _2334
REMARK  687  A    between atoms: _2334  and  _2335
REMARK  688  A    between atoms: _2341  and  _2342
REMARK  689  A    between atoms: _2342  and  _2343
REMARK  690  A    between atoms: _2342  and  _2345
REMARK  691  A    between atoms: _2345  and  _2346
REMARK  692  A    between atoms: _2352  and  _2353
REMARK  693  A    between atoms: _2353  and  _2354
REMARK  694  A    between atoms: _2353  and  _2356
REMARK  695  A    between atoms: _2362  and  _2363
REMARK  696  A    between atoms: _2363  and  _2364
REMARK  697  A    between atoms: _2369  and  _2370
REMARK  698  A    between atoms: _2370  and  _2371
REMARK  699  A    between atoms: _2376  and  _2377
REMARK  700  A    between atoms: _2377  and  _2378
REMARK  701  A    between atoms: _2377  and  _2380
REMARK  702  A    between atoms: _2380  and  _2381
REMARK  703  A    between atoms: _2387  and  _2388
REMARK  704  A    between atoms: _2388  and  _2389
REMARK  705  A    between atoms: _2388  and  _2391
REMARK  706  A    between atoms: _2391  and  _2392
REMARK  707  A    between atoms: _2407  and  _2408
REMARK  708  A    between atoms: _2408  and  _2409
REMARK  709  A    between atoms: _2408  and  _2411
REMARK  710  A    between atoms: _2411  and  _2412
REMARK  711  A    between atoms: _2411  and  _2413
REMARK  712  A    between atoms: _2421  and  _2422
REMARK  713  A    between atoms: _2422  and  _2423
REMARK  714  A    between atoms: _2422  and  _2425
REMARK  715  A    between atoms: _2425  and  _2426
REMARK  716  A    between atoms: _2425  and  _2427
REMARK  717  A    between atoms: _2437  and  _2438
REMARK  718  A    between atoms: _2438  and  _2439
REMARK  719  A    between atoms: _2438  and  _2441
REMARK  720  A    between atoms: _2441  and  _2442
REMARK  721  A    between atoms: _2442  and  _2443
REMARK  722  A    between atoms: _2443  and  _2444
REMARK  723  A    between atoms: _2461  and  _2462
REMARK  724  A    between atoms: _2462  and  _2463
REMARK  725  A    between atoms: _2462  and  _2465
REMARK  726  A    between atoms: _2465  and  _2466
REMARK  727  A    between atoms: _2465  and  _2467
REMARK  728  A    between atoms: _2475  and  _2476
REMARK  729  A    between atoms: _2476  and  _2477
REMARK  730  A    between atoms: _2476  and  _2479
REMARK  731  A    between atoms: _2479  and  _2480
REMARK  732  A    between atoms: _2487  and  _2488
REMARK  733  A    between atoms: _2488  and  _2489
REMARK  734  A    between atoms: _2488  and  _2491
REMARK  735  A    between atoms: _2491  and  _2492
REMARK  736  A    between atoms: _2491  and  _2493
REMARK  737  A    between atoms: _2501  and  _2502
REMARK  738  A    between atoms: _2502  and  _2503
REMARK  739  A    between atoms: _2508  and  _2509
REMARK  740  A    between atoms: _2509  and  _2510
REMARK  741  A    between atoms: _2509  and  _2512
REMARK  742  A    between atoms: _2512  and  _2513
REMARK  743  A    between atoms: _2513  and  _2514
REMARK  744  A    between atoms: _2524  and  _2525
REMARK  745  A    between atoms: _2537  and  _2538
REMARK  746  A    between atoms: _2538  and  _2539
REMARK  747  A    between atoms: _2538  and  _2541
REMARK  748  A    between atoms: _2541  and  _2542
REMARK  749  A    between atoms: _2542  and  _2543
REMARK  750  A    between atoms: _2543  and  _2544
REMARK  751  A    between atoms: _2554  and  _2555
REMARK  752  A    between atoms: _2555  and  _2556
REMARK  753  A    between atoms: _2561  and  _2562
REMARK  754  A    between atoms: _2562  and  _2563
REMARK  755  A    between atoms: _2562  and  _2565
REMARK  756  A    between atoms: _2565  and  _2566
REMARK  757  A    between atoms: _2566  and  _2567
REMARK  758  A    between atoms: _2567  and  _2568
REMARK  759  A    between atoms: _2585  and  _2586
REMARK  760  A    between atoms: _2586  and  _2587
REMARK  761  A    between atoms: _2592  and  _2593
REMARK  762  A    between atoms: _2593  and  _2594
REMARK  763  A    between atoms: _2593  and  _2596
REMARK  764  A    between atoms: _2596  and  _2597
REMARK  765  A    between atoms: _2596  and  _2598
REMARK  766  A    between atoms: _2606  and  _2607
REMARK  767  A    between atoms: _2607  and  _2608
REMARK  768  A    between atoms: _2607  and  _2610
REMARK  769  A    between atoms: _2610  and  _2611
REMARK  770  A    between atoms: _2611  and  _2612
REMARK  771  A    between atoms: _2612  and  _2613
REMARK  772  A    between atoms: _2613  and  _2614
REMARK  773  A    between atoms: _2628  and  _2629
REMARK  774  A    between atoms: _2629  and  _2630
REMARK  775  A    between atoms: _2629  and  _2632
REMARK  776  A    between atoms: _2632  and  _2633
REMARK  777  A    between atoms: _2632  and  _2634
REMARK  778  A    between atoms: _2644  and  _2645
REMARK  779  A    between atoms: _2645  and  _2646
REMARK  780  A    between atoms: _2645  and  _2648
REMARK  781  A    between atoms: _2648  and  _2649
REMARK  782  A    between atoms: _2648  and  _2650
REMARK  783  A    between atoms: _2649  and  _2651
REMARK  784  A    between atoms: _2663  and  _2664
REMARK  785  A    between atoms: _2664  and  _2665
REMARK  786  A    between atoms: _2664  and  _2667
REMARK  787  A    between atoms: _2667  and  _2668
REMARK  788  A    between atoms: _2668  and  _2669
REMARK  789  A    between atoms: _2668  and  _2670
REMARK  790  A    between atoms: _2682  and  _2683
REMARK  791  A    between atoms: _2683  and  _2684
REMARK  792  A    between atoms: _2683  and  _2686
REMARK  793  A    between atoms: _2686  and  _2687
REMARK  794  A    between atoms: _2699  and  _2700
REMARK  795  A    between atoms: _2700  and  _2701
REMARK  796  A    between atoms: _2700  and  _2703
REMARK  797  A    between atoms: _2703  and  _2704
REMARK  798  A    between atoms: _2704  and  _2705
REMARK  799  A    between atoms: _2704  and  _2706
REMARK  800  A    between atoms: _2718  and  _2719
REMARK  801  A    between atoms: _2719  and  _2720
REMARK  802  A    between atoms: _2719  and  _2722
REMARK  803  A    between atoms: _2722  and  _2723
REMARK  804  A    between atoms: _2723  and  _2724
REMARK  805  A    between atoms: _2724  and  _2725
REMARK  806  A    between atoms: _2725  and  _2726
REMARK  807  A    between atoms: _2740  and  _2741
REMARK  808  A    between atoms: _2741  and  _2742
REMARK  809  A    between atoms: _2741  and  _2744
REMARK  810  A    between atoms: _2744  and  _2745
REMARK  811  A    between atoms: _2745  and  _2746
REMARK  812  A    between atoms: _2755  and  _2756
REMARK  813  A    between atoms: _2756  and  _2757
REMARK  814  A    between atoms: _2756  and  _2759
REMARK  815  A    between atoms: _2759  and  _2760
REMARK  816  A    between atoms: _2767  and  _2768
REMARK  817  A    between atoms: _2768  and  _2769
REMARK  818  A    between atoms: _2768  and  _2771
REMARK  819  A    between atoms: _2771  and  _2772
REMARK  820  A    between atoms: _2772  and  _2773
REMARK  821  A    between atoms: _2784  and  _2785
REMARK  822  A    between atoms: _2785  and  _2786
REMARK  823  A    between atoms: _2785  and  _2788
REMARK  824  A    between atoms: _2788  and  _2789
REMARK  825  A    between atoms: _2788  and  _2790
REMARK  826  A    between atoms: _2798  and  _2799
REMARK  827  A    between atoms: _2799  and  _2800
REMARK  828  A    between atoms: _2799  and  _2802
REMARK  829  A    between atoms: _2802  and  _2803
REMARK  830  A    between atoms: _2803  and  _2804
REMARK  831  A    between atoms: _2813  and  _2814
REMARK  832  A    between atoms: _2814  and  _2815
REMARK  833  A    between atoms: _2814  and  _2817
REMARK  834  A    between atoms: _2817  and  _2818
REMARK  835  A    between atoms: _2823  and  _2824
REMARK  836  A    between atoms: _2834  and  _2835
REMARK  837  A    between atoms: _2835  and  _2838
REMARK  838  A    between atoms: _2838  and  _2839
REMARK  839  A    between atoms: _2839  and  _2840
REMARK  840  A    between atoms: _2839  and  _2841
REMARK  841  A    between atoms: _2884  and  _2885
REMARK  842  A    between atoms: _2884  and  _2887
REMARK  843  A    between atoms: _2887  and  _2888
REMARK  844  A    between atoms: _2888  and  _2889
REMARK  845  A    between atoms: _2899  and  _2900
REMARK  846  A    between atoms: _2900  and  _2901
REMARK  847  A    between atoms: _2900  and  _2903
REMARK  848  A    between atoms: _2903  and  _2904
REMARK  849  A    between atoms: _2904  and  _2905
REMARK  850  A    between atoms: _2905  and  _2906
REMARK  851  A    between atoms: _2923  and  _2924
REMARK  852  A    between atoms: _2924  and  _2925
REMARK  853  A    between atoms: _2924  and  _2927
REMARK  854  A    between atoms: _2927  and  _2928
REMARK  855  A    between atoms: _2928  and  _2929
REMARK  856  A    between atoms: _2929  and  _2930
REMARK  857  A    between atoms: _2947  and  _2948
REMARK  858  A    between atoms: _2948  and  _2949
REMARK  859  A    between atoms: _2948  and  _2951
REMARK  860  A    between atoms: _2951  and  _2952
REMARK  861  A    between atoms: _2951  and  _2953
REMARK  862  A    between atoms: _2952  and  _2954
REMARK  863  A    between atoms: _2966  and  _2967
REMARK  864  A    between atoms: _2967  and  _2968
REMARK  865  A    between atoms: _2967  and  _2970
REMARK  866  A    between atoms: _2970  and  _2971
REMARK  867  A    between atoms: _2971  and  _2972
REMARK  868  A    between atoms: _2972  and  _2973
REMARK  869  A    between atoms: _2973  and  _2974
REMARK  870  A    between atoms: _2988  and  _2989
REMARK  871  A    between atoms: _2989  and  _2990
REMARK  872  A    between atoms: _2989  and  _2992
REMARK  873  A    between atoms: _2992  and  _2993
REMARK  874  A    between atoms: _2993  and  _2994
REMARK  875  A    between atoms: _3003  and  _3004
REMARK  876  A    between atoms: _3004  and  _3005
REMARK  877  A    between atoms: _3004  and  _3007
REMARK  878  A    between atoms: _3007  and  _3008
REMARK  879  A    between atoms: _3007  and  _3009
REMARK  880  A    between atoms: _3008  and  _3010
REMARK  881  A    between atoms: _3022  and  _3023
REMARK  882  A    between atoms: _3023  and  _3024
REMARK  883  A    between atoms: _3023  and  _3026
REMARK  884  A    between atoms: _3026  and  _3027
REMARK  885  A    between atoms: _3026  and  _3028
REMARK  886  A    between atoms: _3038  and  _3039
REMARK  887  A    between atoms: _3039  and  _3040
REMARK  888  A    between atoms: _3039  and  _3042
REMARK  889  A    between atoms: _3042  and  _3043
REMARK  890  A    between atoms: _3043  and  _3044
REMARK  891  A    between atoms: _3044  and  _3045
REMARK  892  A    between atoms: _3045  and  _3046
REMARK  893  A    between atoms: _3060  and  _3061
REMARK  894  A    between atoms: _3061  and  _3062
REMARK  895  A    between atoms: _3061  and  _3064
REMARK  896  A    between atoms: _3064  and  _3065
REMARK  897  A    between atoms: _3065  and  _3066
REMARK  898  A    between atoms: _3066  and  _3067
REMARK  899  A    between atoms: _3067  and  _3068
REMARK  900  A    between atoms: _3082  and  _3083
REMARK  901  A    between atoms: _3083  and  _3084
REMARK  902  A    between atoms: _3083  and  _3086
REMARK  903  A    between atoms: _3086  and  _3087
REMARK  904  A    between atoms: _3099  and  _3100
REMARK  905  A    between atoms: _3100  and  _3101
REMARK  906  A    between atoms: _3100  and  _3103
REMARK  907  A    between atoms: _3103  and  _3104
REMARK  908  A    between atoms: _3110  and  _3111
REMARK  909  A    between atoms: _3111  and  _3112
REMARK  910  A    between atoms: _3111  and  _3114
REMARK  911  A    between atoms: _3114  and  _3115
REMARK  912  A    between atoms: _3115  and  _3116
REMARK  913  A    between atoms: _3127  and  _3128
REMARK  914  A    between atoms: _3128  and  _3129
REMARK  915  A    between atoms: _3128  and  _3131
REMARK  916  A    between atoms: _3131  and  _3132
REMARK  917  A    between atoms: _3147  and  _3148
REMARK  918  A    between atoms: _3148  and  _3149
REMARK  919  A    between atoms: _3148  and  _3151
REMARK  920  A    between atoms: _3151  and  _3152
REMARK  921  A    between atoms: _3151  and  _3153
REMARK  922  A    between atoms: _3152  and  _3154
REMARK  923  A    between atoms: _3166  and  _3167
REMARK  924  A    between atoms: _3167  and  _3168
REMARK  925  A    between atoms: _3173  and  _3174
REMARK  926  A    between atoms: _3174  and  _3175
REMARK  927  A    between atoms: _3174  and  _3177
REMARK  928  A    between atoms: _3177  and  _3178
REMARK  929  A    between atoms: _3183  and  _3184
REMARK  930  A    between atoms: _3195  and  _3196
REMARK  931  A    between atoms: _3208  and  _3209
REMARK  932  A    between atoms: _3209  and  _3210
REMARK  933  A    between atoms: _3209  and  _3212
REMARK  934  A    between atoms: _3212  and  _3213
REMARK  935  A    between atoms: _3212  and  _3214
REMARK  936  A    between atoms: _3213  and  _3215
REMARK  937  A    between atoms: _3227  and  _3228
REMARK  938  A    between atoms: _3228  and  _3229
REMARK  939  A    between atoms: _3228  and  _3231
REMARK  940  A    between atoms: _3231  and  _3232
REMARK  941  A    between atoms: _3231  and  _3233
REMARK  942  A    between atoms: _3241  and  _3242
REMARK  943  A    between atoms: _3242  and  _3243
REMARK  944  A    between atoms: _3242  and  _3245
REMARK  945  A    between atoms: _3245  and  _3246
REMARK  946  A    between atoms: _3246  and  _3247
REMARK  947  A    between atoms: _3246  and  _3248
REMARK  948  A    between atoms: _3260  and  _3261
REMARK  949  A    between atoms: _3261  and  _3262
REMARK  950  A    between atoms: _3261  and  _3264
REMARK  951  A    between atoms: _3264  and  _3265
REMARK  952  A    between atoms: _3280  and  _3281
REMARK  953  A    between atoms: _3281  and  _3282
REMARK  954  A    between atoms: _3281  and  _3284
REMARK  955  A    between atoms: _3284  and  _3285
REMARK  956  A    between atoms: _3284  and  _3286
REMARK  957  A    between atoms: _3296  and  _3297
REMARK  958  A    between atoms: _3297  and  _3298
REMARK  959  A    between atoms: _3297  and  _3300
REMARK  960  A    between atoms: _3300  and  _3301
REMARK  961  A    between atoms: _3301  and  _3302
REMARK                            x       y       z     vdW  Elec       q    Type
REMARK                         _______ _______ _______ _____ _____    ______ ____
ROOT
ATOM      1  C   UNL     1       8.074  39.922  41.295  0.00  0.00    +0.000 C 
ENDROOT
TORSDOF 0
REMARK  Name = /Users/mlugowska/PhD/ML_residence_time_prediction/protein_files/5J20_protein.pdb
REMARK  961 active torsions:
REMARK  status: ('A' for Active; 'I' for Inactive)
REMARK    1  A    between atoms: _2  and  _3
REMARK    2  A    between atoms: _2  and  _5
REMARK    3  A    between atoms: _10  and  _11
REMARK    4  A    between atoms: _11  and  _12
REMARK    5  A    between atoms: _11  and  _14
REMARK    6  A    between atoms: _14  and  _15
REMARK    7  A    between atoms: _14  and  _16
REMARK    8  A    between atoms: _26  and  _27
REMARK    9  A    between atoms: _27  and  _28
REMARK   10  A    between atoms: _27  and  _30
REMARK   11  A    between atoms: _30  and  _31
REMARK   12  A    between atoms: _31  and  _32
REMARK   13  A    between atoms: _41  and  _42
REMARK   14  A    between atoms: _42  and  _43
REMARK   15  A    between atoms: _42  and  _45
REMARK   16  A    between atoms: _45  and  _46
REMARK   17  A    between atoms: _45  and  _47
REMARK   18  A    between atoms: _55  and  _56
REMARK   19  A    between atoms: _56  and  _57
REMARK   20  A    between atoms: _56  and  _59
REMARK   21  A    between atoms: _59  and  _60
REMARK   22  A    between atoms: _75  and  _76
REMARK   23  A    between atoms: _76  and  _77
REMARK   24  A    between atoms: _76  and  _79
REMARK   25  A    between atoms: _85  and  _86
REMARK   26  A    between atoms: _86  and  _87
REMARK   27  A    between atoms: _86  and  _89
REMARK   28  A    between atoms: _89  and  _90
REMARK   29  A    between atoms: _105  and  _106
REMARK   30  A    between atoms: _106  and  _107
REMARK   31  A    between atoms: _106  and  _109
REMARK   32  A    between atoms: _109  and  _110
REMARK   33  A    between atoms: _110  and  _111
REMARK   34  A    between atoms: _122  and  _123
REMARK   35  A    between atoms: _123  and  _124
REMARK   36  A    between atoms: _123  and  _126
REMARK   37  A    between atoms: _132  and  _133
REMARK   38  A    between atoms: _133  and  _134
REMARK   39  A    between atoms: _133  and  _136
REMARK   40  A    between atoms: _136  and  _137
REMARK   41  A    between atoms: _137  and  _138
REMARK   42  A    between atoms: _147  and  _148
REMARK   43  A    between atoms: _148  and  _149
REMARK   44  A    between atoms: _148  and  _151
REMARK   45  A    between atoms: _151  and  _152
REMARK   46  A    between atoms: _151  and  _153
REMARK   47  A    between atoms: _152  and  _154
REMARK   48  A    between atoms: _166  and  _167
REMARK   49  A    between atoms: _167  and  _168
REMARK   50  A    between atoms: _167  and  _170
REMARK   51  A    between atoms: _176  and  _177
REMARK   52  A    between atoms: _177  and  _178
REMARK   53  A    between atoms: _177  and  _180
REMARK   54  A    between atoms: _180  and  _181
REMARK   55  A    between atoms: _181  and  _182
REMARK   56  A    between atoms: _193  and  _194
REMARK   57  A    between atoms: _194  and  _195
REMARK   58  A    between atoms: _194  and  _197
REMARK   59  A    between atoms: _197  and  _198
REMARK   60  A    between atoms: _198  and  _199
REMARK   61  A    between atoms: _198  and  _200
REMARK   62  A    between atoms: _212  and  _213
REMARK   63  A    between atoms: _213  and  _214
REMARK   64  A    between atoms: _213  and  _216
REMARK   65  A    between atoms: _216  and  _217
REMARK   66  A    between atoms: _217  and  _218
REMARK   67  A    between atoms: _218  and  _219
REMARK   68  A    between atoms: _229  and  _230
REMARK   69  A    between atoms: _230  and  _231
REMARK   70  A    between atoms: _230  and  _233
REMARK   71  A    between atoms: _233  and  _234
REMARK   72  A    between atoms: _240  and  _241
REMARK   73  A    between atoms: _241  and  _242
REMARK   74  A    between atoms: _241  and  _244
REMARK   75  A    between atoms: _244  and  _245
REMARK   76  A    between atoms: _245  and  _246
REMARK   77  A    between atoms: _245  and  _247
REMARK   78  A    between atoms: _259  and  _260
REMARK   79  A    between atoms: _260  and  _261
REMARK   80  A    between atoms: _260  and  _263
REMARK   81  A    between atoms: _263  and  _264
REMARK   82  A    between atoms: _263  and  _265
REMARK   83  A    between atoms: _264  and  _266
REMARK   84  A    between atoms: _278  and  _279
REMARK   85  A    between atoms: _279  and  _280
REMARK   86  A    between atoms: _279  and  _282
REMARK   87  A    between atoms: _282  and  _283
REMARK   88  A    between atoms: _282  and  _284
REMARK   89  A    between atoms: _283  and  _285
REMARK   90  A    between atoms: _297  and  _298
REMARK   91  A    between atoms: _298  and  _299
REMARK   92  A    between atoms: _298  and  _301
REMARK   93  A    between atoms: _301  and  _302
REMARK   94  A    between atoms: _311  and  _312
REMARK   95  A    between atoms: _312  and  _313
REMARK   96  A    between atoms: _312  and  _315
REMARK   97  A    between atoms: _315  and  _316
REMARK   98  A    between atoms: _315  and  _317
REMARK   99  A    between atoms: _325  and  _326
REMARK  100  A    between atoms: _326  and  _327
REMARK  101  A    between atoms: _326  and  _329
REMARK  102  A    between atoms: _329  and  _330
REMARK  103  A    between atoms: _345  and  _346
REMARK  104  A    between atoms: _346  and  _347
REMARK  105  A    between atoms: _346  and  _349
REMARK  106  A    between atoms: _349  and  _350
REMARK  107  A    between atoms: _355  and  _356
REMARK  108  A    between atoms: _366  and  _367
REMARK  109  A    between atoms: _367  and  _368
REMARK  110  A    between atoms: _367  and  _370
REMARK  111  A    between atoms: _370  and  _371
REMARK  112  A    between atoms: _377  and  _378
REMARK  113  A    between atoms: _378  and  _379
REMARK  114  A    between atoms: _378  and  _381
REMARK  115  A    between atoms: _381  and  _382
REMARK  116  A    between atoms: _391  and  _392
REMARK  117  A    between atoms: _392  and  _393
REMARK  118  A    between atoms: _392  and  _395
REMARK  119  A    between atoms: _395  and  _396
REMARK  120  A    between atoms: _396  and  _397
REMARK  121  A    between atoms: _397  and  _398
REMARK  122  A    between atoms: _398  and  _399
REMARK  123  A    between atoms: _413  and  _414
REMARK  124  A    between atoms: _414  and  _415
REMARK  125  A    between atoms: _414  and  _417
REMARK  126  A    between atoms: _417  and  _418
REMARK  127  A    between atoms: _418  and  _419
REMARK  128  A    between atoms: _428  and  _429
REMARK  129  A    between atoms: _429  and  _430
REMARK  130  A    between atoms: _429  and  _432
REMARK  131  A    between atoms: _432  and  _433
REMARK  132  A    between atoms: _432  and  _434
REMARK  133  A    between atoms: _433  and  _435
REMARK  134  A    between atoms: _447  and  _448
REMARK  135  A    between atoms: _448  and  _449
REMARK  136  A    between atoms: _448  and  _451
REMARK  137  A    between atoms: _451  and  _452
REMARK  138  A    between atoms: _467  and  _468
REMARK  139  A    between atoms: _468  and  _469
REMARK  140  A    between atoms: _468  and  _471
REMARK  141  A    between atoms: _471  and  _472
REMARK  142  A    between atoms: _472  and  _473
REMARK  143  A    between atoms: _472  and  _474
REMARK  144  A    between atoms: _486  and  _487
REMARK  145  A    between atoms: _487  and  _488
REMARK  146  A    between atoms: _487  and  _490
REMARK  147  A    between atoms: _490  and  _491
REMARK  148  A    between atoms: _491  and  _492
REMARK  149  A    between atoms: _492  and  _493
REMARK  150  A    between atoms: _510  and  _511
REMARK  151  A    between atoms: _511  and  _512
REMARK  152  A    between atoms: _511  and  _514
REMARK  153  A    between atoms: _514  and  _515
REMARK  154  A    between atoms: _515  and  _516
REMARK  155  A    between atoms: _525  and  _526
REMARK  156  A    between atoms: _526  and  _527
REMARK  157  A    between atoms: _526  and  _529
REMARK  158  A    between atoms: _529  and  _530
REMARK  159  A    between atoms: _530  and  _531
REMARK  160  A    between atoms: _530  and  _532
REMARK  161  A    between atoms: _544  and  _545
REMARK  162  A    between atoms: _545  and  _546
REMARK  163  A    between atoms: _545  and  _548
REMARK  164  A    between atoms: _548  and  _549
REMARK  165  A    between atoms: _548  and  _550
REMARK  166  A    between atoms: _549  and  _551
REMARK  167  A    between atoms: _563  and  _564
REMARK  168  A    between atoms: _564  and  _565
REMARK  169  A    between atoms: _564  and  _567
REMARK  170  A    between atoms: _567  and  _568
REMARK  171  A    between atoms: _574  and  _575
REMARK  172  A    between atoms: _575  and  _576
REMARK  173  A    between atoms: _575  and  _578
REMARK  174  A    between atoms: _578  and  _579
REMARK  175  A    between atoms: _588  and  _589
REMARK  176  A    between atoms: _589  and  _590
REMARK  177  A    between atoms: _589  and  _592
REMARK  178  A    between atoms: _592  and  _593
REMARK  179  A    between atoms: _599  and  _600
REMARK  180  A    between atoms: _600  and  _601
REMARK  181  A    between atoms: _600  and  _603
REMARK  182  A    between atoms: _603  and  _604
REMARK  183  A    between atoms: _610  and  _611
REMARK  184  A    between atoms: _611  and  _612
REMARK  185  A    between atoms: _611  and  _614
REMARK  186  A    between atoms: _614  and  _615
REMARK  187  A    between atoms: _622  and  _623
REMARK  188  A    between atoms: _623  and  _624
REMARK  189  A    between atoms: _623  and  _626
REMARK  190  A    between atoms: _632  and  _633
REMARK  191  A    between atoms: _633  and  _634
REMARK  192  A    between atoms: _633  and  _636
REMARK  193  A    between atoms: _636  and  _637
REMARK  194  A    between atoms: _637  and  _638
REMARK  195  A    between atoms: _637  and  _639
REMARK  196  A    between atoms: _651  and  _652
REMARK  197  A    between atoms: _652  and  _653
REMARK  198  A    between atoms: _652  and  _655
REMARK  199  A    between atoms: _655  and  _656
REMARK  200  A    between atoms: _663  and  _664
REMARK  201  A    between atoms: _664  and  _665
REMARK  202  A    between atoms: _664  and  _667
REMARK  203  A    between atoms: _667  and  _668
REMARK  204  A    between atoms: _668  and  _669
REMARK  205  A    between atoms: _669  and  _670
REMARK  206  A    between atoms: _670  and  _671
REMARK  207  A    between atoms: _685  and  _686
REMARK  208  A    between atoms: _686  and  _687
REMARK  209  A    between atoms: _686  and  _689
REMARK  210  A    between atoms: _689  and  _690
REMARK  211  A    between atoms: _689  and  _691
REMARK  212  A    between atoms: _690  and  _692
REMARK  213  A    between atoms: _704  and  _705
REMARK  214  A    between atoms: _705  and  _706
REMARK  215  A    between atoms: _705  and  _708
REMARK  216  A    between atoms: _708  and  _709
REMARK  217  A    between atoms: _709  and  _710
REMARK  218  A    between atoms: _710  and  _711
REMARK  219  A    between atoms: _728  and  _729
REMARK  220  A    between atoms: _729  and  _730
REMARK  221  A    between atoms: _729  and  _732
REMARK  222  A    between atoms: _732  and  _733
REMARK  223  A    between atoms: _738  and  _739
REMARK  224  A    between atoms: _749  and  _750
REMARK  225  A    between atoms: _750  and  _751
REMARK  226  A    between atoms: _750  and  _753
REMARK  227  A    between atoms: _753  and  _754
REMARK  228  A    between atoms: _754  and  _755
REMARK  229  A    between atoms: _764  and  _765
REMARK  230  A    between atoms: _765  and  _766
REMARK  231  A    between atoms: _765  and  _768
REMARK  232  A    between atoms: _772  and  _773
REMARK  233  A    between atoms: _773  and  _774
REMARK  234  A    between atoms: _773  and  _776
REMARK  235  A    between atoms: _776  and  _777
REMARK  236  A    between atoms: _777  and  _778
REMARK  237  A    between atoms: _777  and  _779
REMARK  238  A    between atoms: _791  and  _792
REMARK  239  A    between atoms: _792  and  _793
REMARK  240  A    between atoms: _792  and  _795
REMARK  241  A    between atoms: _795  and  _796
REMARK  242  A    between atoms: _795  and  _797
REMARK  243  A    between atoms: _805  and  _806
REMARK  244  A    between atoms: _806  and  _807
REMARK  245  A    between atoms: _806  and  _809
REMARK  246  A    between atoms: _809  and  _810
REMARK  247  A    between atoms: _818  and  _819
REMARK  248  A    between atoms: _831  and  _832
REMARK  249  A    between atoms: _832  and  _833
REMARK  250  A    between atoms: _832  and  _835
REMARK  251  A    between atoms: _835  and  _836
REMARK  252  A    between atoms: _842  and  _843
REMARK  253  A    between atoms: _843  and  _844
REMARK  254  A    between atoms: _843  and  _846
REMARK  255  A    between atoms: _846  and  _847
REMARK  256  A    between atoms: _847  and  _848
REMARK  257  A    between atoms: _848  and  _849
REMARK  258  A    between atoms: _849  and  _850
REMARK  259  A    between atoms: _864  and  _865
REMARK  260  A    between atoms: _865  and  _866
REMARK  261  A    between atoms: _865  and  _868
REMARK  262  A    between atoms: _868  and  _869
REMARK  263  A    between atoms: _869  and  _870
REMARK  264  A    between atoms: _869  and  _871
REMARK  265  A    between atoms: _883  and  _884
REMARK  266  A    between atoms: _884  and  _885
REMARK  267  A    between atoms: _884  and  _887
REMARK  268  A    between atoms: _887  and  _888
REMARK  269  A    between atoms: _895  and  _896
REMARK  270  A    between atoms: _896  and  _897
REMARK  271  A    between atoms: _896  and  _899
REMARK  272  A    between atoms: _899  and  _900
REMARK  273  A    between atoms: _906  and  _907
REMARK  274  A    between atoms: _907  and  _908
REMARK  275  A    between atoms: _913  and  _914
REMARK  276  A    between atoms: _914  and  _915
REMARK  277  A    between atoms: _914  and  _917
REMARK  278  A    between atoms: _917  and  _918
REMARK  279  A    between atoms: _918  and  _919
REMARK  280  A    between atoms: _919  and  _920
REMARK  281  A    between atoms: _920  and  _921
REMARK  282  A    between atoms: _935  and  _936
REMARK  283  A    between atoms: _936  and  _937
REMARK  284  A    between atoms: _936  and  _939
REMARK  285  A    between atoms: _939  and  _940
REMARK  286  A    between atoms: _940  and  _941
REMARK  287  A    between atoms: _950  and  _951
REMARK  288  A    between atoms: _951  and  _952
REMARK  289  A    between atoms: _951  and  _954
REMARK  290  A    between atoms: _954  and  _955
REMARK  291  A    between atoms: _955  and  _956
REMARK  292  A    between atoms: _955  and  _957
REMARK  293  A    between atoms: _969  and  _970
REMARK  294  A    between atoms: _970  and  _971
REMARK  295  A    between atoms: _970  and  _973
REMARK  296  A    between atoms: _973  and  _974
REMARK  297  A    between atoms: _986  and  _987
REMARK  298  A    between atoms: _987  and  _988
REMARK  299  A    between atoms: _987  and  _990
REMARK  300  A    between atoms: _990  and  _991
REMARK  301  A    between atoms: _990  and  _992
REMARK  302  A    between atoms: _991  and  _993
REMARK  303  A    between atoms: _1005  and  _1006
REMARK  304  A    between atoms: _1006  and  _1007
REMARK  305  A    between atoms: _1006  and  _1009
REMARK  306  A    between atoms: _1009  and  _1010
REMARK  307  A    between atoms: _1019  and  _1020
REMARK  308  A    between atoms: _1020  and  _1021
REMARK  309  A    between atoms: _1020  and  _1023
REMARK  310  A    between atoms: _1023  and  _1024
REMARK  311  A    between atoms: _1024  and  _1025
REMARK  312  A    between atoms: _1024  and  _1026
REMARK  313  A    between atoms: _1038  and  _1039
REMARK  314  A    between atoms: _1039  and  _1040
REMARK  315  A    between atoms: _1039  and  _1042
REMARK  316  A    between atoms: _1042  and  _1043
REMARK  317  A    between atoms: _1042  and  _1044
REMARK  318  A    between atoms: _1043  and  _1045
REMARK  319  A    between atoms: _1058  and  _1059
REMARK  320  A    between atoms: _1071  and  _1072
REMARK  321  A    between atoms: _1072  and  _1073
REMARK  322  A    between atoms: _1072  and  _1075
REMARK  323  A    between atoms: _1075  and  _1076
REMARK  324  A    between atoms: _1085  and  _1086
REMARK  325  A    between atoms: _1086  and  _1087
REMARK  326  A    between atoms: _1086  and  _1089
REMARK  327  A    between atoms: _1089  and  _1090
REMARK  328  A    between atoms: _1090  and  _1091
REMARK  329  A    between atoms: _1091  and  _1092
REMARK  330  A    between atoms: _1092  and  _1093
REMARK  331  A    between atoms: _1107  and  _1108
REMARK  332  A    between atoms: _1108  and  _1109
REMARK  333  A    between atoms: _1108  and  _1111
REMARK  334  A    between atoms: _1111  and  _1112
REMARK  335  A    between atoms: _1112  and  _1113
REMARK  336  A    between atoms: _1124  and  _1125
REMARK  337  A    between atoms: _1125  and  _1126
REMARK  338  A    between atoms: _1125  and  _1128
REMARK  339  A    between atoms: _1128  and  _1129
REMARK  340  A    between atoms: _1136  and  _1137
REMARK  341  A    between atoms: _1137  and  _1138
REMARK  342  A    between atoms: _1137  and  _1140
REMARK  343  A    between atoms: _1140  and  _1141
REMARK  344  A    between atoms: _1141  and  _1142
REMARK  345  A    between atoms: _1142  and  _1143
REMARK  346  A    between atoms: _1160  and  _1161
REMARK  347  A    between atoms: _1161  and  _1162
REMARK  348  A    between atoms: _1161  and  _1164
REMARK  349  A    between atoms: _1164  and  _1165
REMARK  350  A    between atoms: _1164  and  _1166
REMARK  351  A    between atoms: _1174  and  _1175
REMARK  352  A    between atoms: _1175  and  _1176
REMARK  353  A    between atoms: _1175  and  _1178
REMARK  354  A    between atoms: _1178  and  _1179
REMARK  355  A    between atoms: _1179  and  _1180
REMARK  356  A    between atoms: _1179  and  _1181
REMARK  357  A    between atoms: _1193  and  _1194
REMARK  358  A    between atoms: _1194  and  _1195
REMARK  359  A    between atoms: _1194  and  _1197
REMARK  360  A    between atoms: _1197  and  _1198
REMARK  361  A    between atoms: _1197  and  _1199
REMARK  362  A    between atoms: _1207  and  _1208
REMARK  363  A    between atoms: _1208  and  _1209
REMARK  364  A    between atoms: _1208  and  _1211
REMARK  365  A    between atoms: _1211  and  _1212
REMARK  366  A    between atoms: _1211  and  _1213
REMARK  367  A    between atoms: _1212  and  _1214
REMARK  368  A    between atoms: _1226  and  _1227
REMARK  369  A    between atoms: _1227  and  _1228
REMARK  370  A    between atoms: _1227  and  _1230
REMARK  371  A    between atoms: _1230  and  _1231
REMARK  372  A    between atoms: _1230  and  _1232
REMARK  373  A    between atoms: _1242  and  _1243
REMARK  374  A    between atoms: _1243  and  _1244
REMARK  375  A    between atoms: _1243  and  _1246
REMARK  376  A    between atoms: _1246  and  _1247
REMARK  377  A    between atoms: _1254  and  _1255
REMARK  378  A    between atoms: _1255  and  _1256
REMARK  379  A    between atoms: _1255  and  _1258
REMARK  380  A    between atoms: _1258  and  _1259
REMARK  381  A    between atoms: _1258  and  _1260
REMARK  382  A    between atoms: _1268  and  _1269
REMARK  383  A    between atoms: _1269  and  _1270
REMARK  384  A    between atoms: _1275  and  _1276
REMARK  385  A    between atoms: _1276  and  _1277
REMARK  386  A    between atoms: _1276  and  _1279
REMARK  387  A    between atoms: _1279  and  _1280
REMARK  388  A    between atoms: _1279  and  _1281
REMARK  389  A    between atoms: _1280  and  _1282
REMARK  390  A    between atoms: _1294  and  _1295
REMARK  391  A    between atoms: _1295  and  _1296
REMARK  392  A    between atoms: _1301  and  _1302
REMARK  393  A    between atoms: _1302  and  _1303
REMARK  394  A    between atoms: _1302  and  _1305
REMARK  395  A    between atoms: _1305  and  _1306
REMARK  396  A    between atoms: _1306  and  _1307
REMARK  397  A    between atoms: _1307  and  _1308
REMARK  398  A    between atoms: _1318  and  _1319
REMARK  399  A    between atoms: _1319  and  _1320
REMARK  400  A    between atoms: _1319  and  _1322
REMARK  401  A    between atoms: _1322  and  _1323
REMARK  402  A    between atoms: _1322  and  _1324
REMARK  403  A    between atoms: _1332  and  _1333
REMARK  404  A    between atoms: _1333  and  _1334
REMARK  405  A    between atoms: _1333  and  _1336
REMARK  406  A    between atoms: _1336  and  _1337
REMARK  407  A    between atoms: _1337  and  _1338
REMARK  408  A    between atoms: _1338  and  _1339
REMARK  409  A    between atoms: _1339  and  _1340
REMARK  410  A    between atoms: _1354  and  _1355
REMARK  411  A    between atoms: _1355  and  _1356
REMARK  412  A    between atoms: _1355  and  _1358
REMARK  413  A    between atoms: _1364  and  _1365
REMARK  414  A    between atoms: _1365  and  _1366
REMARK  415  A    between atoms: _1365  and  _1368
REMARK  416  A    between atoms: _1368  and  _1369
REMARK  417  A    between atoms: _1376  and  _1377
REMARK  418  A    between atoms: _1377  and  _1378
REMARK  419  A    between atoms: _1377  and  _1380
REMARK  420  A    between atoms: _1380  and  _1381
REMARK  421  A    between atoms: _1381  and  _1382
REMARK  422  A    between atoms: _1381  and  _1383
REMARK  423  A    between atoms: _1395  and  _1396
REMARK  424  A    between atoms: _1396  and  _1399
REMARK  425  A    between atoms: _1399  and  _1400
REMARK  426  A    between atoms: _1399  and  _1401
REMARK  427  A    between atoms: _1400  and  _1402
REMARK  428  A    between atoms: _1422  and  _1425
REMARK  429  A    between atoms: _1424  and  _1428
REMARK  430  A    between atoms: _1425  and  _1427
REMARK  431  A    between atoms: _1443  and  _1444
REMARK  432  A    between atoms: _1443  and  _1446
REMARK  433  A    between atoms: _1446  and  _1447
REMARK  434  A    between atoms: _1457  and  _1458
REMARK  435  A    between atoms: _1458  and  _1459
REMARK  436  A    between atoms: _1458  and  _1461
REMARK  437  A    between atoms: _1461  and  _1462
REMARK  438  A    between atoms: _1462  and  _1463
REMARK  439  A    between atoms: _1462  and  _1464
REMARK  440  A    between atoms: _1476  and  _1477
REMARK  441  A    between atoms: _1477  and  _1478
REMARK  442  A    between atoms: _1483  and  _1484
REMARK  443  A    between atoms: _1484  and  _1485
REMARK  444  A    between atoms: _1484  and  _1487
REMARK  445  A    between atoms: _1487  and  _1488
REMARK  446  A    between atoms: _1487  and  _1489
REMARK  447  A    between atoms: _1497  and  _1498
REMARK  448  A    between atoms: _1498  and  _1499
REMARK  449  A    between atoms: _1498  and  _1501
REMARK  450  A    between atoms: _1501  and  _1502
REMARK  451  A    between atoms: _1501  and  _1503
REMARK  452  A    between atoms: _1502  and  _1504
REMARK  453  A    between atoms: _1516  and  _1517
REMARK  454  A    between atoms: _1517  and  _1518
REMARK  455  A    between atoms: _1517  and  _1520
REMARK  456  A    between atoms: _1526  and  _1527
REMARK  457  A    between atoms: _1527  and  _1528
REMARK  458  A    between atoms: _1527  and  _1530
REMARK  459  A    between atoms: _1530  and  _1531
REMARK  460  A    between atoms: _1531  and  _1532
REMARK  461  A    between atoms: _1532  and  _1533
REMARK  462  A    between atoms: _1533  and  _1534
REMARK  463  A    between atoms: _1548  and  _1549
REMARK  464  A    between atoms: _1549  and  _1550
REMARK  465  A    between atoms: _1549  and  _1552
REMARK  466  A    between atoms: _1552  and  _1553
REMARK  467  A    between atoms: _1559  and  _1560
REMARK  468  A    between atoms: _1560  and  _1561
REMARK  469  A    between atoms: _1566  and  _1567
REMARK  470  A    between atoms: _1567  and  _1568
REMARK  471  A    between atoms: _1567  and  _1570
REMARK  472  A    between atoms: _1570  and  _1571
REMARK  473  A    between atoms: _1570  and  _1572
REMARK  474  A    between atoms: _1580  and  _1581
REMARK  475  A    between atoms: _1581  and  _1582
REMARK  476  A    between atoms: _1581  and  _1584
REMARK  477  A    between atoms: _1584  and  _1585
REMARK  478  A    between atoms: _1585  and  _1586
REMARK  479  A    between atoms: _1586  and  _1587
REMARK  480  A    between atoms: _1587  and  _1588
REMARK  481  A    between atoms: _1602  and  _1603
REMARK  482  A    between atoms: _1603  and  _1604
REMARK  483  A    between atoms: _1603  and  _1606
REMARK  484  A    between atoms: _1612  and  _1613
REMARK  485  A    between atoms: _1613  and  _1614
REMARK  486  A    between atoms: _1613  and  _1616
REMARK  487  A    between atoms: _1616  and  _1617
REMARK  488  A    between atoms: _1632  and  _1633
REMARK  489  A    between atoms: _1633  and  _1634
REMARK  490  A    between atoms: _1633  and  _1636
REMARK  491  A    between atoms: _1636  and  _1637
REMARK  492  A    between atoms: _1637  and  _1638
REMARK  493  A    between atoms: _1638  and  _1639
REMARK  494  A    between atoms: _1649  and  _1650
REMARK  495  A    between atoms: _1650  and  _1651
REMARK  496  A    between atoms: _1650  and  _1653
REMARK  497  A    between atoms: _1653  and  _1654
REMARK  498  A    between atoms: _1654  and  _1655
REMARK  499  A    between atoms: _1664  and  _1665
REMARK  500  A    between atoms: _1665  and  _1666
REMARK  501  A    between atoms: _1665  and  _1668
REMARK  502  A    between atoms: _1674  and  _1675
REMARK  503  A    between atoms: _1675  and  _1676
REMARK  504  A    between atoms: _1675  and  _1678
REMARK  505  A    between atoms: _1678  and  _1679
REMARK  506  A    between atoms: _1679  and  _1680
REMARK  507  A    between atoms: _1679  and  _1681
REMARK  508  A    between atoms: _1693  and  _1694
REMARK  509  A    between atoms: _1694  and  _1695
REMARK  510  A    between atoms: _1694  and  _1697
REMARK  511  A    between atoms: _1697  and  _1698
REMARK  512  A    between atoms: _1698  and  _1699
REMARK  513  A    between atoms: _1710  and  _1711
REMARK  514  A    between atoms: _1711  and  _1712
REMARK  515  A    between atoms: _1711  and  _1714
REMARK  516  A    between atoms: _1720  and  _1721
REMARK  517  A    between atoms: _1721  and  _1722
REMARK  518  A    between atoms: _1727  and  _1728
REMARK  519  A    between atoms: _1728  and  _1729
REMARK  520  A    between atoms: _1728  and  _1731
REMARK  521  A    between atoms: _1737  and  _1738
REMARK  522  A    between atoms: _1738  and  _1739
REMARK  523  A    between atoms: _1738  and  _1741
REMARK  524  A    between atoms: _1741  and  _1742
REMARK  525  A    between atoms: _1749  and  _1750
REMARK  526  A    between atoms: _1750  and  _1751
REMARK  527  A    between atoms: _1750  and  _1753
REMARK  528  A    between atoms: _1753  and  _1754
REMARK  529  A    between atoms: _1753  and  _1755
REMARK  530  A    between atoms: _1754  and  _1756
REMARK  531  A    between atoms: _1768  and  _1769
REMARK  532  A    between atoms: _1769  and  _1772
REMARK  533  A    between atoms: _1772  and  _1773
REMARK  534  A    between atoms: _1791  and  _1793
REMARK  535  A    between atoms: _1792  and  _1794
REMARK  536  A    between atoms: _1814  and  _1815
REMARK  537  A    between atoms: _1814  and  _1817
REMARK  538  A    between atoms: _1817  and  _1818
REMARK  539  A    between atoms: _1817  and  _1819
REMARK  540  A    between atoms: _1818  and  _1820
REMARK  541  A    between atoms: _1833  and  _1834
REMARK  542  A    between atoms: _1834  and  _1835
REMARK  543  A    between atoms: _1840  and  _1841
REMARK  544  A    between atoms: _1841  and  _1842
REMARK  545  A    between atoms: _1841  and  _1844
REMARK  546  A    between atoms: _1844  and  _1845
REMARK  547  A    between atoms: _1845  and  _1846
REMARK  548  A    between atoms: _1857  and  _1858
REMARK  549  A    between atoms: _1858  and  _1859
REMARK  550  A    between atoms: _1858  and  _1861
REMARK  551  A    between atoms: _1861  and  _1862
REMARK  552  A    between atoms: _1877  and  _1878
REMARK  553  A    between atoms: _1878  and  _1879
REMARK  554  A    between atoms: _1884  and  _1885
REMARK  555  A    between atoms: _1885  and  _1886
REMARK  556  A    between atoms: _1885  and  _1888
REMARK  557  A    between atoms: _1888  and  _1889
REMARK  558  A    between atoms: _1888  and  _1890
REMARK  559  A    between atoms: _1900  and  _1901
REMARK  560  A    between atoms: _1901  and  _1902
REMARK  561  A    between atoms: _1907  and  _1908
REMARK  562  A    between atoms: _1908  and  _1909
REMARK  563  A    between atoms: _1908  and  _1911
REMARK  564  A    between atoms: _1911  and  _1912
REMARK  565  A    between atoms: _1927  and  _1928
REMARK  566  A    between atoms: _1928  and  _1929
REMARK  567  A    between atoms: _1928  and  _1931
REMARK  568  A    between atoms: _1931  and  _1932
REMARK  569  A    between atoms: _1937  and  _1938
REMARK  570  A    between atoms: _1948  and  _1949
REMARK  571  A    between atoms: _1949  and  _1950
REMARK  572  A    between atoms: _1949  and  _1952
REMARK  573  A    between atoms: _1952  and  _1953
REMARK  574  A    between atoms: _1959  and  _1960
REMARK  575  A    between atoms: _1960  and  _1961
REMARK  576  A    between atoms: _1960  and  _1963
REMARK  577  A    between atoms: _1969  and  _1970
REMARK  578  A    between atoms: _1970  and  _1971
REMARK  579  A    between atoms: _1970  and  _1973
REMARK  580  A    between atoms: _1973  and  _1974
REMARK  581  A    between atoms: _1979  and  _1980
REMARK  582  A    between atoms: _1990  and  _1991
REMARK  583  A    between atoms: _1991  and  _1992
REMARK  584  A    between atoms: _1991  and  _1994
REMARK  585  A    between atoms: _1994  and  _1995
REMARK  586  A    between atoms: _1995  and  _1996
REMARK  587  A    between atoms: _1995  and  _1997
REMARK  588  A    between atoms: _2009  and  _2010
REMARK  589  A    between atoms: _2010  and  _2011
REMARK  590  A    between atoms: _2010  and  _2013
REMARK  591  A    between atoms: _2013  and  _2014
REMARK  592  A    between atoms: _2013  and  _2015
REMARK  593  A    between atoms: _2025  and  _2026
REMARK  594  A    between atoms: _2026  and  _2027
REMARK  595  A    between atoms: _2026  and  _2029
REMARK  596  A    between atoms: _2035  and  _2036
REMARK  597  A    between atoms: _2036  and  _2037
REMARK  598  A    between atoms: _2036  and  _2039
REMARK  599  A    between atoms: _2039  and  _2040
REMARK  600  A    between atoms: _2040  and  _2041
REMARK  601  A    between atoms: _2050  and  _2051
REMARK  602  A    between atoms: _2051  and  _2052
REMARK  603  A    between atoms: _2051  and  _2054
REMARK  604  A    between atoms: _2054  and  _2055
REMARK  605  A    between atoms: _2055  and  _2056
REMARK  606  A    between atoms: _2056  and  _2057
REMARK  607  A    between atoms: _2057  and  _2058
REMARK  608  A    between atoms: _2072  and  _2073
REMARK  609  A    between atoms: _2073  and  _2074
REMARK  610  A    between atoms: _2073  and  _2076
REMARK  611  A    between atoms: _2076  and  _2077
REMARK  612  A    between atoms: _2076  and  _2078
REMARK  613  A    between atoms: _2088  and  _2089
REMARK  614  A    between atoms: _2089  and  _2090
REMARK  615  A    between atoms: _2089  and  _2092
REMARK  616  A    between atoms: _2092  and  _2093
REMARK  617  A    between atoms: _2092  and  _2094
REMARK  618  A    between atoms: _2102  and  _2103
REMARK  619  A    between atoms: _2103  and  _2104
REMARK  620  A    between atoms: _2103  and  _2106
REMARK  621  A    between atoms: _2106  and  _2107
REMARK  622  A    between atoms: _2106  and  _2108
REMARK  623  A    between atoms: _2118  and  _2119
REMARK  624  A    between atoms: _2119  and  _2120
REMARK  625  A    between atoms: _2119  and  _2122
REMARK  626  A    between atoms: _2122  and  _2123
REMARK  627  A    between atoms: _2122  and  _2124
REMARK  628  A    between atoms: _2123  and  _2125
REMARK  629  A    between atoms: _2137  and  _2138
REMARK  630  A    between atoms: _2138  and  _2139
REMARK  631  A    between atoms: _2138  and  _2141
REMARK  632  A    between atoms: _2141  and  _2142
REMARK  633  A    between atoms: _2141  and  _2143
REMARK  634  A    between atoms: _2151  and  _2152
REMARK  635  A    between atoms: _2152  and  _2153
REMARK  636  A    between atoms: _2152  and  _2155
REMARK  637  A    between atoms: _2155  and  _2156
REMARK  638  A    between atoms: _2156  and  _2157
REMARK  639  A    between atoms: _2157  and  _2158
REMARK  640  A    between atoms: _2158  and  _2159
REMARK  641  A    between atoms: _2173  and  _2174
REMARK  642  A    between atoms: _2174  and  _2175
REMARK  643  A    between atoms: _2174  and  _2177
REMARK  644  A    between atoms: _2177  and  _2178
REMARK  645  A    between atoms: _2190  and  _2191
REMARK  646  A    between atoms: _2191  and  _2192
REMARK  647  A    between atoms: _2191  and  _2194
REMARK  648  A    between atoms: _2194  and  _2195
REMARK  649  A    between atoms: _2204  and  _2205
REMARK  650  A    between atoms: _2205  and  _2206
REMARK  651  A    between atoms: _2205  and  _2208
REMARK  652  A    between atoms: _2208  and  _2209
REMARK  653  A    between atoms: _2216  and  _2217
REMARK  654  A    between atoms: _2217  and  _2218
REMARK  655  A    between atoms: _2217  and  _2220
REMARK  656  A    between atoms: _2220  and  _2221
REMARK  657  A    between atoms: _2228  and  _2229
REMARK  658  A    between atoms: _2229  and  _2230
REMARK  659  A    between atoms: _2229  and  _2232
REMARK  660  A    between atoms: _2232  and  _2233
REMARK  661  A    between atoms: _2233  and  _2234
REMARK  662  A    between atoms: _2243  and  _2244
REMARK  663  A    between atoms: _2244  and  _2245
REMARK  664  A    between atoms: _2244  and  _2247
REMARK  665  A    between atoms: _2247  and  _2248
REMARK  666  A    between atoms: _2248  and  _2249
REMARK  667  A    between atoms: _2260  and  _2261
REMARK  668  A    between atoms: _2261  and  _2262
REMARK  669  A    between atoms: _2261  and  _2264
REMARK  670  A    between atoms: _2264  and  _2265
REMARK  671  A    between atoms: _2270  and  _2271
REMARK  672  A    between atoms: _2281  and  _2282
REMARK  673  A    between atoms: _2282  and  _2283
REMARK  674  A    between atoms: _2282  and  _2285
REMARK  675  A    between atoms: _2291  and  _2292
REMARK  676  A    between atoms: _2292  and  _2293
REMARK  677  A    between atoms: _2292  and  _2295
REMARK  678  A    between atoms: _2295  and  _2296
REMARK  679  A    between atoms: _2315  and  _2316
REMARK  680  A    between atoms: _2316  and  _2317
REMARK  681  A    between atoms: _2316  and  _2319
REMARK  682  A    between atoms: _2319  and  _2320
REMARK  683  A    between atoms: _2320  and  _2321
REMARK  684  A    between atoms: _2330  and  _2331
REMARK  685  A    between atoms: _2331  and  _2332
REMARK  686  A    between atoms: _2331  and  _2334
REMARK  687  A    between atoms: _2334  and  _2335
REMARK  688  A    between atoms: _2341  and  _2342
REMARK  689  A    between atoms: _2342  and  _2343
REMARK  690  A    between atoms: _2342  and  _2345
REMARK  691  A    between atoms: _2345  and  _2346
REMARK  692  A    between atoms: _2352  and  _2353
REMARK  693  A    between atoms: _2353  and  _2354
REMARK  694  A    between atoms: _2353  and  _2356
REMARK  695  A    between atoms: _2362  and  _2363
REMARK  696  A    between atoms: _2363  and  _2364
REMARK  697  A    between atoms: _2369  and  _2370
REMARK  698  A    between atoms: _2370  and  _2371
REMARK  699  A    between atoms: _2376  and  _2377
REMARK  700  A    between atoms: _2377  and  _2378
REMARK  701  A    between atoms: _2377  and  _2380
REMARK  702  A    between atoms: _2380  and  _2381
REMARK  703  A    between atoms: _2387  and  _2388
REMARK  704  A    between atoms: _2388  and  _2389
REMARK  705  A    between atoms: _2388  and  _2391
REMARK  706  A    between atoms: _2391  and  _2392
REMARK  707  A    between atoms: _2407  and  _2408
REMARK  708  A    between atoms: _2408  and  _2409
REMARK  709  A    between atoms: _2408  and  _2411
REMARK  710  A    between atoms: _2411  and  _2412
REMARK  711  A    between atoms: _2411  and  _2413
REMARK  712  A    between atoms: _2421  and  _2422
REMARK  713  A    between atoms: _2422  and  _2423
REMARK  714  A    between atoms: _2422  and  _2425
REMARK  715  A    between atoms: _2425  and  _2426
REMARK  716  A    between atoms: _2425  and  _2427
REMARK  717  A    between atoms: _2437  and  _2438
REMARK  718  A    between atoms: _2438  and  _2439
REMARK  719  A    between atoms: _2438  and  _2441
REMARK  720  A    between atoms: _2441  and  _2442
REMARK  721  A    between atoms: _2442  and  _2443
REMARK  722  A    between atoms: _2443  and  _2444
REMARK  723  A    between atoms: _2461  and  _2462
REMARK  724  A    between atoms: _2462  and  _2463
REMARK  725  A    between atoms: _2462  and  _2465
REMARK  726  A    between atoms: _2465  and  _2466
REMARK  727  A    between atoms: _2465  and  _2467
REMARK  728  A    between atoms: _2475  and  _2476
REMARK  729  A    between atoms: _2476  and  _2477
REMARK  730  A    between atoms: _2476  and  _2479
REMARK  731  A    between atoms: _2479  and  _2480
REMARK  732  A    between atoms: _2487  and  _2488
REMARK  733  A    between atoms: _2488  and  _2489
REMARK  734  A    between atoms: _2488  and  _2491
REMARK  735  A    between atoms: _2491  and  _2492
REMARK  736  A    between atoms: _2491  and  _2493
REMARK  737  A    between atoms: _2501  and  _2502
REMARK  738  A    between atoms: _2502  and  _2503
REMARK  739  A    between atoms: _2508  and  _2509
REMARK  740  A    between atoms: _2509  and  _2510
REMARK  741  A    between atoms: _2509  and  _2512
REMARK  742  A    between atoms: _2512  and  _2513
REMARK  743  A    between atoms: _2513  and  _2514
REMARK  744  A    between atoms: _2524  and  _2525
REMARK  745  A    between atoms: _2537  and  _2538
REMARK  746  A    between atoms: _2538  and  _2539
REMARK  747  A    between atoms: _2538  and  _2541
REMARK  748  A    between atoms: _2541  and  _2542
REMARK  749  A    between atoms: _2542  and  _2543
REMARK  750  A    between atoms: _2543  and  _2544
REMARK  751  A    between atoms: _2554  and  _2555
REMARK  752  A    between atoms: _2555  and  _2556
REMARK  753  A    between atoms: _2561  and  _2562
REMARK  754  A    between atoms: _2562  and  _2563
REMARK  755  A    between atoms: _2562  and  _2565
REMARK  756  A    between atoms: _2565  and  _2566
REMARK  757  A    between atoms: _2566  and  _2567
REMARK  758  A    between atoms: _2567  and  _2568
REMARK  759  A    between atoms: _2585  and  _2586
REMARK  760  A    between atoms: _2586  and  _2587
REMARK  761  A    between atoms: _2592  and  _2593
REMARK  762  A    between atoms: _2593  and  _2594
REMARK  763  A    between atoms: _2593  and  _2596
REMARK  764  A    between atoms: _2596  and  _2597
REMARK  765  A    between atoms: _2596  and  _2598
REMARK  766  A    between atoms: _2606  and  _2607
REMARK  767  A    between atoms: _2607  and  _2608
REMARK  768  A    between atoms: _2607  and  _2610
REMARK  769  A    between atoms: _2610  and  _2611
REMARK  770  A    between atoms: _2611  and  _2612
REMARK  771  A    between atoms: _2612  and  _2613
REMARK  772  A    between atoms: _2613  and  _2614
REMARK  773  A    between atoms: _2628  and  _2629
REMARK  774  A    between atoms: _2629  and  _2630
REMARK  775  A    between atoms: _2629  and  _2632
REMARK  776  A    between atoms: _2632  and  _2633
REMARK  777  A    between atoms: _2632  and  _2634
REMARK  778  A    between atoms: _2644  and  _2645
REMARK  779  A    between atoms: _2645  and  _2646
REMARK  780  A    between atoms: _2645  and  _2648
REMARK  781  A    between atoms: _2648  and  _2649
REMARK  782  A    between atoms: _2648  and  _2650
REMARK  783  A    between atoms: _2649  and  _2651
REMARK  784  A    between atoms: _2663  and  _2664
REMARK  785  A    between atoms: _2664  and  _2665
REMARK  786  A    between atoms: _2664  and  _2667
REMARK  787  A    between atoms: _2667  and  _2668
REMARK  788  A    between atoms: _2668  and  _2669
REMARK  789  A    between atoms: _2668  and  _2670
REMARK  790  A    between atoms: _2682  and  _2683
REMARK  791  A    between atoms: _2683  and  _2684
REMARK  792  A    between atoms: _2683  and  _2686
REMARK  793  A    between atoms: _2686  and  _2687
REMARK  794  A    between atoms: _2699  and  _2700
REMARK  795  A    between atoms: _2700  and  _2701
REMARK  796  A    between atoms: _2700  and  _2703
REMARK  797  A    between atoms: _2703  and  _2704
REMARK  798  A    between atoms: _2704  and  _2705
REMARK  799  A    between atoms: _2704  and  _2706
REMARK  800  A    between atoms: _2718  and  _2719
REMARK  801  A    between atoms: _2719  and  _2720
REMARK  802  A    between atoms: _2719  and  _2722
REMARK  803  A    between atoms: _2722  and  _2723
REMARK  804  A    between atoms: _2723  and  _2724
REMARK  805  A    between atoms: _2724  and  _2725
REMARK  806  A    between atoms: _2725  and  _2726
REMARK  807  A    between atoms: _2740  and  _2741
REMARK  808  A    between atoms: _2741  and  _2742
REMARK  809  A    between atoms: _2741  and  _2744
REMARK  810  A    between atoms: _2744  and  _2745
REMARK  811  A    between atoms: _2745  and  _2746
REMARK  812  A    between atoms: _2755  and  _2756
REMARK  813  A    between atoms: _2756  and  _2757
REMARK  814  A    between atoms: _2756  and  _2759
REMARK  815  A    between atoms: _2759  and  _2760
REMARK  816  A    between atoms: _2767  and  _2768
REMARK  817  A    between atoms: _2768  and  _2769
REMARK  818  A    between atoms: _2768  and  _2771
REMARK  819  A    between atoms: _2771  and  _2772
REMARK  820  A    between atoms: _2772  and  _2773
REMARK  821  A    between atoms: _2784  and  _2785
REMARK  822  A    between atoms: _2785  and  _2786
REMARK  823  A    between atoms: _2785  and  _2788
REMARK  824  A    between atoms: _2788  and  _2789
REMARK  825  A    between atoms: _2788  and  _2790
REMARK  826  A    between atoms: _2798  and  _2799
REMARK  827  A    between atoms: _2799  and  _2800
REMARK  828  A    between atoms: _2799  and  _2802
REMARK  829  A    between atoms: _2802  and  _2803
REMARK  830  A    between atoms: _2803  and  _2804
REMARK  831  A    between atoms: _2813  and  _2814
REMARK  832  A    between atoms: _2814  and  _2815
REMARK  833  A    between atoms: _2814  and  _2817
REMARK  834  A    between atoms: _2817  and  _2818
REMARK  835  A    between atoms: _2823  and  _2824
REMARK  836  A    between atoms: _2834  and  _2835
REMARK  837  A    between atoms: _2835  and  _2838
REMARK  838  A    between atoms: _2838  and  _2839
REMARK  839  A    between atoms: _2839  and  _2840
REMARK  840  A    between atoms: _2839  and  _2841
REMARK  841  A    between atoms: _2884  and  _2885
REMARK  842  A    between atoms: _2884  and  _2887
REMARK  843  A    between atoms: _2887  and  _2888
REMARK  844  A    between atoms: _2888  and  _2889
REMARK  845  A    between atoms: _2899  and  _2900
REMARK  846  A    between atoms: _2900  and  _2901
REMARK  847  A    between atoms: _2900  and  _2903
REMARK  848  A    between atoms: _2903  and  _2904
REMARK  849  A    between atoms: _2904  and  _2905
REMARK  850  A    between atoms: _2905  and  _2906
REMARK  851  A    between atoms: _2923  and  _2924
REMARK  852  A    between atoms: _2924  and  _2925
REMARK  853  A    between atoms: _2924  and  _2927
REMARK  854  A    between atoms: _2927  and  _2928
REMARK  855  A    between atoms: _2928  and  _2929
REMARK  856  A    between atoms: _2929  and  _2930
REMARK  857  A    between atoms: _2947  and  _2948
REMARK  858  A    between atoms: _2948  and  _2949
REMARK  859  A    between atoms: _2948  and  _2951
REMARK  860  A    between atoms: _2951  and  _2952
REMARK  861  A    between atoms: _2951  and  _2953
REMARK  862  A    between atoms: _2952  and  _2954
REMARK  863  A    between atoms: _2966  and  _2967
REMARK  864  A    between atoms: _2967  and  _2968
REMARK  865  A    between atoms: _2967  and  _2970
REMARK  866  A    between atoms: _2970  and  _2971
REMARK  867  A    between atoms: _2971  and  _2972
REMARK  868  A    between atoms: _2972  and  _2973
REMARK  869  A    between atoms: _2973  and  _2974
REMARK  870  A    between atoms: _2988  and  _2989
REMARK  871  A    between atoms: _2989  and  _2990
REMARK  872  A    between atoms: _2989  and  _2992
REMARK  873  A    between atoms: _2992  and  _2993
REMARK  874  A    between atoms: _2993  and  _2994
REMARK  875  A    between atoms: _3003  and  _3004
REMARK  876  A    between atoms: _3004  and  _3005
REMARK  877  A    between atoms: _3004  and  _3007
REMARK  878  A    between atoms: _3007  and  _3008
REMARK  879  A    between atoms: _3007  and  _3009
REMARK  880  A    between atoms: _3008  and  _3010
REMARK  881  A    between atoms: _3022  and  _3023
REMARK  882  A    between atoms: _3023  and  _3024
REMARK  883  A    between atoms: _3023  and  _3026
REMARK  884  A    between atoms: _3026  and  _3027
REMARK  885  A    between atoms: _3026  and  _3028
REMARK  886  A    between atoms: _3038  and  _3039
REMARK  887  A    between atoms: _3039  and  _3040
REMARK  888  A    between atoms: _3039  and  _3042
REMARK  889  A    between atoms: _3042  and  _3043
REMARK  890  A    between atoms: _3043  and  _3044
REMARK  891  A    between atoms: _3044  and  _3045
REMARK  892  A    between atoms: _3045  and  _3046
REMARK  893  A    between atoms: _3060  and  _3061
REMARK  894  A    between atoms: _3061  and  _3062
REMARK  895  A    between atoms: _3061  and  _3064
REMARK  896  A    between atoms: _3064  and  _3065
REMARK  897  A    between atoms: _3065  and  _3066
REMARK  898  A    between atoms: _3066  and  _3067
REMARK  899  A    between atoms: _3067  and  _3068
REMARK  900  A    between atoms: _3082  and  _3083
REMARK  901  A    between atoms: _3083  and  _3084
REMARK  902  A    between atoms: _3083  and  _3086
REMARK  903  A    between atoms: _3086  and  _3087
REMARK  904  A    between atoms: _3099  and  _3100
REMARK  905  A    between atoms: _3100  and  _3101
REMARK  906  A    between atoms: _3100  and  _3103
REMARK  907  A    between atoms: _3103  and  _3104
REMARK  908  A    between atoms: _3110  and  _3111
REMARK  909  A    between atoms: _3111  and  _3112
REMARK  910  A    between atoms: _3111  and  _3114
REMARK  911  A    between atoms: _3114  and  _3115
REMARK  912  A    between atoms: _3115  and  _3116
REMARK  913  A    between atoms: _3127  and  _3128
REMARK  914  A    between atoms: _3128  and  _3129
REMARK  915  A    between atoms: _3128  and  _3131
REMARK  916  A    between atoms: _3131  and  _3132
REMARK  917  A    between atoms: _3147  and  _3148
REMARK  918  A    between atoms: _3148  and  _3149
REMARK  919  A    between atoms: _3148  and  _3151
REMARK  920  A    between atoms: _3151  and  _3152
REMARK  921  A    between atoms: _3151  and  _3153
REMARK  922  A    between atoms: _3152  and  _3154
REMARK  923  A    between atoms: _3166  and  _3167
REMARK  924  A    between atoms: _3167  and  _3168
REMARK  925  A    between atoms: _3173  and  _3174
REMARK  926  A    between atoms: _3174  and  _3175
REMARK  927  A    between atoms: _3174  and  _3177
REMARK  928  A    between atoms: _3177  and  _3178
REMARK  929  A    between atoms: _3183  and  _3184
REMARK  930  A    between atoms: _3195  and  _3196
REMARK  931  A    between atoms: _3208  and  _3209
REMARK  932  A    between atoms: _3209  and  _3210
REMARK  933  A    between atoms: _3209  and  _3212
REMARK  934  A    between atoms: _3212  and  _3213
REMARK  935  A    between atoms: _3212  and  _3214
REMARK  936  A    between atoms: _3213  and  _3215
REMARK  937  A    between atoms: _3227  and  _3228
REMARK  938  A    between atoms: _3228  and  _3229
REMARK  939  A    between atoms: _3228  and  _3231
REMARK  940  A    between atoms: _3231  and  _3232
REMARK  941  A    between atoms: _3231  and  _3233
REMARK  942  A    between atoms: _3241  and  _3242
REMARK  943  A    between atoms: _3242  and  _3243
REMARK  944  A    between atoms: _3242  and  _3245
REMARK  945  A    between atoms: _3245  and  _3246
REMARK  946  A    between atoms: _3246  and  _3247
REMARK  947  A    between atoms: _3246  and  _3248
REMARK  948  A    between atoms: _3260  and  _3261
REMARK  949  A    between atoms: _3261  and  _3262
REMARK  950  A    between atoms: _3261  and  _3264
REMARK  951  A    between atoms: _3264  and  _3265
REMARK  952  A    between atoms: _3280  and  _3281
REMARK  953  A    between atoms: _3281  and  _3282
REMARK  954  A    between atoms: _3281  and  _3284
REMARK  955  A    between atoms: _3284  and  _3285
REMARK  956  A    between atoms: _3284  and  _3286
REMARK  957  A    between atoms: _3296  and  _3297
REMARK  958  A    between atoms: _3297  and  _3298
REMARK  959  A    between atoms: _3297  and  _3300
REMARK  960  A    between atoms: _3300  and  _3301
REMARK  961  A    between atoms: _3301  and  _3302
REMARK                            x       y       z     vdW  Elec       q    Type
REMARK                         _______ _______ _______ _____ _____    ______ ____
ROOT
ATOM      1  C   UNL     1       8.069  39.943  41.226  0.00  0.00    +0.000 C 
ENDROOT
TORSDOF 0
REMARK  Name = /Users/mlugowska/PhD/ML_residence_time_prediction/protein_files/5J20_protein.pdb
REMARK  961 active torsions:
REMARK  status: ('A' for Active; 'I' for Inactive)
REMARK    1  A    between atoms: _2  and  _3
REMARK    2  A    between atoms: _2  and  _5
REMARK    3  A    between atoms: _10  and  _11
REMARK    4  A    between atoms: _11  and  _12
REMARK    5  A    between atoms: _11  and  _14
REMARK    6  A    between atoms: _14  and  _15
REMARK    7  A    between atoms: _14  and  _16
REMARK    8  A    between atoms: _26  and  _27
REMARK    9  A    between atoms: _27  and  _28
REMARK   10  A    between atoms: _27  and  _30
REMARK   11  A    between atoms: _30  and  _31
REMARK   12  A    between atoms: _31  and  _32
REMARK   13  A    between atoms: _41  and  _42
REMARK   14  A    between atoms: _42  and  _43
REMARK   15  A    between atoms: _42  and  _45
REMARK   16  A    between atoms: _45  and  _46
REMARK   17  A    between atoms: _45  and  _47
REMARK   18  A    between atoms: _55  and  _56
REMARK   19  A    between atoms: _56  and  _57
REMARK   20  A    between atoms: _56  and  _59
REMARK   21  A    between atoms: _59  and  _60
REMARK   22  A    between atoms: _75  and  _76
REMARK   23  A    between atoms: _76  and  _77
REMARK   24  A    between atoms: _76  and  _79
REMARK   25  A    between atoms: _85  and  _86
REMARK   26  A    between atoms: _86  and  _87
REMARK   27  A    between atoms: _86  and  _89
REMARK   28  A    between atoms: _89  and  _90
REMARK   29  A    between atoms: _105  and  _106
REMARK   30  A    between atoms: _106  and  _107
REMARK   31  A    between atoms: _106  and  _109
REMARK   32  A    between atoms: _109  and  _110
REMARK   33  A    between atoms: _110  and  _111
REMARK   34  A    between atoms: _122  and  _123
REMARK   35  A    between atoms: _123  and  _124
REMARK   36  A    between atoms: _123  and  _126
REMARK   37  A    between atoms: _132  and  _133
REMARK   38  A    between atoms: _133  and  _134
REMARK   39  A    between atoms: _133  and  _136
REMARK   40  A    between atoms: _136  and  _137
REMARK   41  A    between atoms: _137  and  _138
REMARK   42  A    between atoms: _147  and  _148
REMARK   43  A    between atoms: _148  and  _149
REMARK   44  A    between atoms: _148  and  _151
REMARK   45  A    between atoms: _151  and  _152
REMARK   46  A    between atoms: _151  and  _153
REMARK   47  A    between atoms: _152  and  _154
REMARK   48  A    between atoms: _166  and  _167
REMARK   49  A    between atoms: _167  and  _168
REMARK   50  A    between atoms: _167  and  _170
REMARK   51  A    between atoms: _176  and  _177
REMARK   52  A    between atoms: _177  and  _178
REMARK   53  A    between atoms: _177  and  _180
REMARK   54  A    between atoms: _180  and  _181
REMARK   55  A    between atoms: _181  and  _182
REMARK   56  A    between atoms: _193  and  _194
REMARK   57  A    between atoms: _194  and  _195
REMARK   58  A    between atoms: _194  and  _197
REMARK   59  A    between atoms: _197  and  _198
REMARK   60  A    between atoms: _198  and  _199
REMARK   61  A    between atoms: _198  and  _200
REMARK   62  A    between atoms: _212  and  _213
REMARK   63  A    between atoms: _213  and  _214
REMARK   64  A    between atoms: _213  and  _216
REMARK   65  A    between atoms: _216  and  _217
REMARK   66  A    between atoms: _217  and  _218
REMARK   67  A    between atoms: _218  and  _219
REMARK   68  A    between atoms: _229  and  _230
REMARK   69  A    between atoms: _230  and  _231
REMARK   70  A    between atoms: _230  and  _233
REMARK   71  A    between atoms: _233  and  _234
REMARK   72  A    between atoms: _240  and  _241
REMARK   73  A    between atoms: _241  and  _242
REMARK   74  A    between atoms: _241  and  _244
REMARK   75  A    between atoms: _244  and  _245
REMARK   76  A    between atoms: _245  and  _246
REMARK   77  A    between atoms: _245  and  _247
REMARK   78  A    between atoms: _259  and  _260
REMARK   79  A    between atoms: _260  and  _261
REMARK   80  A    between atoms: _260  and  _263
REMARK   81  A    between atoms: _263  and  _264
REMARK   82  A    between atoms: _263  and  _265
REMARK   83  A    between atoms: _264  and  _266
REMARK   84  A    between atoms: _278  and  _279
REMARK   85  A    between atoms: _279  and  _280
REMARK   86  A    between atoms: _279  and  _282
REMARK   87  A    between atoms: _282  and  _283
REMARK   88  A    between atoms: _282  and  _284
REMARK   89  A    between atoms: _283  and  _285
REMARK   90  A    between atoms: _297  and  _298
REMARK   91  A    between atoms: _298  and  _299
REMARK   92  A    between atoms: _298  and  _301
REMARK   93  A    between atoms: _301  and  _302
REMARK   94  A    between atoms: _311  and  _312
REMARK   95  A    between atoms: _312  and  _313
REMARK   96  A    between atoms: _312  and  _315
REMARK   97  A    between atoms: _315  and  _316
REMARK   98  A    between atoms: _315  and  _317
REMARK   99  A    between atoms: _325  and  _326
REMARK  100  A    between atoms: _326  and  _327
REMARK  101  A    between atoms: _326  and  _329
REMARK  102  A    between atoms: _329  and  _330
REMARK  103  A    between atoms: _345  and  _346
REMARK  104  A    between atoms: _346  and  _347
REMARK  105  A    between atoms: _346  and  _349
REMARK  106  A    between atoms: _349  and  _350
REMARK  107  A    between atoms: _355  and  _356
REMARK  108  A    between atoms: _366  and  _367
REMARK  109  A    between atoms: _367  and  _368
REMARK  110  A    between atoms: _367  and  _370
REMARK  111  A    between atoms: _370  and  _371
REMARK  112  A    between atoms: _377  and  _378
REMARK  113  A    between atoms: _378  and  _379
REMARK  114  A    between atoms: _378  and  _381
REMARK  115  A    between atoms: _381  and  _382
REMARK  116  A    between atoms: _391  and  _392
REMARK  117  A    between atoms: _392  and  _393
REMARK  118  A    between atoms: _392  and  _395
REMARK  119  A    between atoms: _395  and  _396
REMARK  120  A    between atoms: _396  and  _397
REMARK  121  A    between atoms: _397  and  _398
REMARK  122  A    between atoms: _398  and  _399
REMARK  123  A    between atoms: _413  and  _414
REMARK  124  A    between atoms: _414  and  _415
REMARK  125  A    between atoms: _414  and  _417
REMARK  126  A    between atoms: _417  and  _418
REMARK  127  A    between atoms: _418  and  _419
REMARK  128  A    between atoms: _428  and  _429
REMARK  129  A    between atoms: _429  and  _430
REMARK  130  A    between atoms: _429  and  _432
REMARK  131  A    between atoms: _432  and  _433
REMARK  132  A    between atoms: _432  and  _434
REMARK  133  A    between atoms: _433  and  _435
REMARK  134  A    between atoms: _447  and  _448
REMARK  135  A    between atoms: _448  and  _449
REMARK  136  A    between atoms: _448  and  _451
REMARK  137  A    between atoms: _451  and  _452
REMARK  138  A    between atoms: _467  and  _468
REMARK  139  A    between atoms: _468  and  _469
REMARK  140  A    between atoms: _468  and  _471
REMARK  141  A    between atoms: _471  and  _472
REMARK  142  A    between atoms: _472  and  _473
REMARK  143  A    between atoms: _472  and  _474
REMARK  144  A    between atoms: _486  and  _487
REMARK  145  A    between atoms: _487  and  _488
REMARK  146  A    between atoms: _487  and  _490
REMARK  147  A    between atoms: _490  and  _491
REMARK  148  A    between atoms: _491  and  _492
REMARK  149  A    between atoms: _492  and  _493
REMARK  150  A    between atoms: _510  and  _511
REMARK  151  A    between atoms: _511  and  _512
REMARK  152  A    between atoms: _511  and  _514
REMARK  153  A    between atoms: _514  and  _515
REMARK  154  A    between atoms: _515  and  _516
REMARK  155  A    between atoms: _525  and  _526
REMARK  156  A    between atoms: _526  and  _527
REMARK  157  A    between atoms: _526  and  _529
REMARK  158  A    between atoms: _529  and  _530
REMARK  159  A    between atoms: _530  and  _531
REMARK  160  A    between atoms: _530  and  _532
REMARK  161  A    between atoms: _544  and  _545
REMARK  162  A    between atoms: _545  and  _546
REMARK  163  A    between atoms: _545  and  _548
REMARK  164  A    between atoms: _548  and  _549
REMARK  165  A    between atoms: _548  and  _550
REMARK  166  A    between atoms: _549  and  _551
REMARK  167  A    between atoms: _563  and  _564
REMARK  168  A    between atoms: _564  and  _565
REMARK  169  A    between atoms: _564  and  _567
REMARK  170  A    between atoms: _567  and  _568
REMARK  171  A    between atoms: _574  and  _575
REMARK  172  A    between atoms: _575  and  _576
REMARK  173  A    between atoms: _575  and  _578
REMARK  174  A    between atoms: _578  and  _579
REMARK  175  A    between atoms: _588  and  _589
REMARK  176  A    between atoms: _589  and  _590
REMARK  177  A    between atoms: _589  and  _592
REMARK  178  A    between atoms: _592  and  _593
REMARK  179  A    between atoms: _599  and  _600
REMARK  180  A    between atoms: _600  and  _601
REMARK  181  A    between atoms: _600  and  _603
REMARK  182  A    between atoms: _603  and  _604
REMARK  183  A    between atoms: _610  and  _611
REMARK  184  A    between atoms: _611  and  _612
REMARK  185  A    between atoms: _611  and  _614
REMARK  186  A    between atoms: _614  and  _615
REMARK  187  A    between atoms: _622  and  _623
REMARK  188  A    between atoms: _623  and  _624
REMARK  189  A    between atoms: _623  and  _626
REMARK  190  A    between atoms: _632  and  _633
REMARK  191  A    between atoms: _633  and  _634
REMARK  192  A    between atoms: _633  and  _636
REMARK  193  A    between atoms: _636  and  _637
REMARK  194  A    between atoms: _637  and  _638
REMARK  195  A    between atoms: _637  and  _639
REMARK  196  A    between atoms: _651  and  _652
REMARK  197  A    between atoms: _652  and  _653
REMARK  198  A    between atoms: _652  and  _655
REMARK  199  A    between atoms: _655  and  _656
REMARK  200  A    between atoms: _663  and  _664
REMARK  201  A    between atoms: _664  and  _665
REMARK  202  A    between atoms: _664  and  _667
REMARK  203  A    between atoms: _667  and  _668
REMARK  204  A    between atoms: _668  and  _669
REMARK  205  A    between atoms: _669  and  _670
REMARK  206  A    between atoms: _670  and  _671
REMARK  207  A    between atoms: _685  and  _686
REMARK  208  A    between atoms: _686  and  _687
REMARK  209  A    between atoms: _686  and  _689
REMARK  210  A    between atoms: _689  and  _690
REMARK  211  A    between atoms: _689  and  _691
REMARK  212  A    between atoms: _690  and  _692
REMARK  213  A    between atoms: _704  and  _705
REMARK  214  A    between atoms: _705  and  _706
REMARK  215  A    between atoms: _705  and  _708
REMARK  216  A    between atoms: _708  and  _709
REMARK  217  A    between atoms: _709  and  _710
REMARK  218  A    between atoms: _710  and  _711
REMARK  219  A    between atoms: _728  and  _729
REMARK  220  A    between atoms: _729  and  _730
REMARK  221  A    between atoms: _729  and  _732
REMARK  222  A    between atoms: _732  and  _733
REMARK  223  A    between atoms: _738  and  _739
REMARK  224  A    between atoms: _749  and  _750
REMARK  225  A    between atoms: _750  and  _751
REMARK  226  A    between atoms: _750  and  _753
REMARK  227  A    between atoms: _753  and  _754
REMARK  228  A    between atoms: _754  and  _755
REMARK  229  A    between atoms: _764  and  _765
REMARK  230  A    between atoms: _765  and  _766
REMARK  231  A    between atoms: _765  and  _768
REMARK  232  A    between atoms: _772  and  _773
REMARK  233  A    between atoms: _773  and  _774
REMARK  234  A    between atoms: _773  and  _776
REMARK  235  A    between atoms: _776  and  _777
REMARK  236  A    between atoms: _777  and  _778
REMARK  237  A    between atoms: _777  and  _779
REMARK  238  A    between atoms: _791  and  _792
REMARK  239  A    between atoms: _792  and  _793
REMARK  240  A    between atoms: _792  and  _795
REMARK  241  A    between atoms: _795  and  _796
REMARK  242  A    between atoms: _795  and  _797
REMARK  243  A    between atoms: _805  and  _806
REMARK  244  A    between atoms: _806  and  _807
REMARK  245  A    between atoms: _806  and  _809
REMARK  246  A    between atoms: _809  and  _810
REMARK  247  A    between atoms: _818  and  _819
REMARK  248  A    between atoms: _831  and  _832
REMARK  249  A    between atoms: _832  and  _833
REMARK  250  A    between atoms: _832  and  _835
REMARK  251  A    between atoms: _835  and  _836
REMARK  252  A    between atoms: _842  and  _843
REMARK  253  A    between atoms: _843  and  _844
REMARK  254  A    between atoms: _843  and  _846
REMARK  255  A    between atoms: _846  and  _847
REMARK  256  A    between atoms: _847  and  _848
REMARK  257  A    between atoms: _848  and  _849
REMARK  258  A    between atoms: _849  and  _850
REMARK  259  A    between atoms: _864  and  _865
REMARK  260  A    between atoms: _865  and  _866
REMARK  261  A    between atoms: _865  and  _868
REMARK  262  A    between atoms: _868  and  _869
REMARK  263  A    between atoms: _869  and  _870
REMARK  264  A    between atoms: _869  and  _871
REMARK  265  A    between atoms: _883  and  _884
REMARK  266  A    between atoms: _884  and  _885
REMARK  267  A    between atoms: _884  and  _887
REMARK  268  A    between atoms: _887  and  _888
REMARK  269  A    between atoms: _895  and  _896
REMARK  270  A    between atoms: _896  and  _897
REMARK  271  A    between atoms: _896  and  _899
REMARK  272  A    between atoms: _899  and  _900
REMARK  273  A    between atoms: _906  and  _907
REMARK  274  A    between atoms: _907  and  _908
REMARK  275  A    between atoms: _913  and  _914
REMARK  276  A    between atoms: _914  and  _915
REMARK  277  A    between atoms: _914  and  _917
REMARK  278  A    between atoms: _917  and  _918
REMARK  279  A    between atoms: _918  and  _919
REMARK  280  A    between atoms: _919  and  _920
REMARK  281  A    between atoms: _920  and  _921
REMARK  282  A    between atoms: _935  and  _936
REMARK  283  A    between atoms: _936  and  _937
REMARK  284  A    between atoms: _936  and  _939
REMARK  285  A    between atoms: _939  and  _940
REMARK  286  A    between atoms: _940  and  _941
REMARK  287  A    between atoms: _950  and  _951
REMARK  288  A    between atoms: _951  and  _952
REMARK  289  A    between atoms: _951  and  _954
REMARK  290  A    between atoms: _954  and  _955
REMARK  291  A    between atoms: _955  and  _956
REMARK  292  A    between atoms: _955  and  _957
REMARK  293  A    between atoms: _969  and  _970
REMARK  294  A    between atoms: _970  and  _971
REMARK  295  A    between atoms: _970  and  _973
REMARK  296  A    between atoms: _973  and  _974
REMARK  297  A    between atoms: _986  and  _987
REMARK  298  A    between atoms: _987  and  _988
REMARK  299  A    between atoms: _987  and  _990
REMARK  300  A    between atoms: _990  and  _991
REMARK  301  A    between atoms: _990  and  _992
REMARK  302  A    between atoms: _991  and  _993
REMARK  303  A    between atoms: _1005  and  _1006
REMARK  304  A    between atoms: _1006  and  _1007
REMARK  305  A    between atoms: _1006  and  _1009
REMARK  306  A    between atoms: _1009  and  _1010
REMARK  307  A    between atoms: _1019  and  _1020
REMARK  308  A    between atoms: _1020  and  _1021
REMARK  309  A    between atoms: _1020  and  _1023
REMARK  310  A    between atoms: _1023  and  _1024
REMARK  311  A    between atoms: _1024  and  _1025
REMARK  312  A    between atoms: _1024  and  _1026
REMARK  313  A    between atoms: _1038  and  _1039
REMARK  314  A    between atoms: _1039  and  _1040
REMARK  315  A    between atoms: _1039  and  _1042
REMARK  316  A    between atoms: _1042  and  _1043
REMARK  317  A    between atoms: _1042  and  _1044
REMARK  318  A    between atoms: _1043  and  _1045
REMARK  319  A    between atoms: _1058  and  _1059
REMARK  320  A    between atoms: _1071  and  _1072
REMARK  321  A    between atoms: _1072  and  _1073
REMARK  322  A    between atoms: _1072  and  _1075
REMARK  323  A    between atoms: _1075  and  _1076
REMARK  324  A    between atoms: _1085  and  _1086
REMARK  325  A    between atoms: _1086  and  _1087
REMARK  326  A    between atoms: _1086  and  _1089
REMARK  327  A    between atoms: _1089  and  _1090
REMARK  328  A    between atoms: _1090  and  _1091
REMARK  329  A    between atoms: _1091  and  _1092
REMARK  330  A    between atoms: _1092  and  _1093
REMARK  331  A    between atoms: _1107  and  _1108
REMARK  332  A    between atoms: _1108  and  _1109
REMARK  333  A    between atoms: _1108  and  _1111
REMARK  334  A    between atoms: _1111  and  _1112
REMARK  335  A    between atoms: _1112  and  _1113
REMARK  336  A    between atoms: _1124  and  _1125
REMARK  337  A    between atoms: _1125  and  _1126
REMARK  338  A    between atoms: _1125  and  _1128
REMARK  339  A    between atoms: _1128  and  _1129
REMARK  340  A    between atoms: _1136  and  _1137
REMARK  341  A    between atoms: _1137  and  _1138
REMARK  342  A    between atoms: _1137  and  _1140
REMARK  343  A    between atoms: _1140  and  _1141
REMARK  344  A    between atoms: _1141  and  _1142
REMARK  345  A    between atoms: _1142  and  _1143
REMARK  346  A    between atoms: _1160  and  _1161
REMARK  347  A    between atoms: _1161  and  _1162
REMARK  348  A    between atoms: _1161  and  _1164
REMARK  349  A    between atoms: _1164  and  _1165
REMARK  350  A    between atoms: _1164  and  _1166
REMARK  351  A    between atoms: _1174  and  _1175
REMARK  352  A    between atoms: _1175  and  _1176
REMARK  353  A    between atoms: _1175  and  _1178
REMARK  354  A    between atoms: _1178  and  _1179
REMARK  355  A    between atoms: _1179  and  _1180
REMARK  356  A    between atoms: _1179  and  _1181
REMARK  357  A    between atoms: _1193  and  _1194
REMARK  358  A    between atoms: _1194  and  _1195
REMARK  359  A    between atoms: _1194  and  _1197
REMARK  360  A    between atoms: _1197  and  _1198
REMARK  361  A    between atoms: _1197  and  _1199
REMARK  362  A    between atoms: _1207  and  _1208
REMARK  363  A    between atoms: _1208  and  _1209
REMARK  364  A    between atoms: _1208  and  _1211
REMARK  365  A    between atoms: _1211  and  _1212
REMARK  366  A    between atoms: _1211  and  _1213
REMARK  367  A    between atoms: _1212  and  _1214
REMARK  368  A    between atoms: _1226  and  _1227
REMARK  369  A    between atoms: _1227  and  _1228
REMARK  370  A    between atoms: _1227  and  _1230
REMARK  371  A    between atoms: _1230  and  _1231
REMARK  372  A    between atoms: _1230  and  _1232
REMARK  373  A    between atoms: _1242  and  _1243
REMARK  374  A    between atoms: _1243  and  _1244
REMARK  375  A    between atoms: _1243  and  _1246
REMARK  376  A    between atoms: _1246  and  _1247
REMARK  377  A    between atoms: _1254  and  _1255
REMARK  378  A    between atoms: _1255  and  _1256
REMARK  379  A    between atoms: _1255  and  _1258
REMARK  380  A    between atoms: _1258  and  _1259
REMARK  381  A    between atoms: _1258  and  _1260
REMARK  382  A    between atoms: _1268  and  _1269
REMARK  383  A    between atoms: _1269  and  _1270
REMARK  384  A    between atoms: _1275  and  _1276
REMARK  385  A    between atoms: _1276  and  _1277
REMARK  386  A    between atoms: _1276  and  _1279
REMARK  387  A    between atoms: _1279  and  _1280
REMARK  388  A    between atoms: _1279  and  _1281
REMARK  389  A    between atoms: _1280  and  _1282
REMARK  390  A    between atoms: _1294  and  _1295
REMARK  391  A    between atoms: _1295  and  _1296
REMARK  392  A    between atoms: _1301  and  _1302
REMARK  393  A    between atoms: _1302  and  _1303
REMARK  394  A    between atoms: _1302  and  _1305
REMARK  395  A    between atoms: _1305  and  _1306
REMARK  396  A    between atoms: _1306  and  _1307
REMARK  397  A    between atoms: _1307  and  _1308
REMARK  398  A    between atoms: _1318  and  _1319
REMARK  399  A    between atoms: _1319  and  _1320
REMARK  400  A    between atoms: _1319  and  _1322
REMARK  401  A    between atoms: _1322  and  _1323
REMARK  402  A    between atoms: _1322  and  _1324
REMARK  403  A    between atoms: _1332  and  _1333
REMARK  404  A    between atoms: _1333  and  _1334
REMARK  405  A    between atoms: _1333  and  _1336
REMARK  406  A    between atoms: _1336  and  _1337
REMARK  407  A    between atoms: _1337  and  _1338
REMARK  408  A    between atoms: _1338  and  _1339
REMARK  409  A    between atoms: _1339  and  _1340
REMARK  410  A    between atoms: _1354  and  _1355
REMARK  411  A    between atoms: _1355  and  _1356
REMARK  412  A    between atoms: _1355  and  _1358
REMARK  413  A    between atoms: _1364  and  _1365
REMARK  414  A    between atoms: _1365  and  _1366
REMARK  415  A    between atoms: _1365  and  _1368
REMARK  416  A    between atoms: _1368  and  _1369
REMARK  417  A    between atoms: _1376  and  _1377
REMARK  418  A    between atoms: _1377  and  _1378
REMARK  419  A    between atoms: _1377  and  _1380
REMARK  420  A    between atoms: _1380  and  _1381
REMARK  421  A    between atoms: _1381  and  _1382
REMARK  422  A    between atoms: _1381  and  _1383
REMARK  423  A    between atoms: _1395  and  _1396
REMARK  424  A    between atoms: _1396  and  _1399
REMARK  425  A    between atoms: _1399  and  _1400
REMARK  426  A    between atoms: _1399  and  _1401
REMARK  427  A    between atoms: _1400  and  _1402
REMARK  428  A    between atoms: _1422  and  _1425
REMARK  429  A    between atoms: _1424  and  _1428
REMARK  430  A    between atoms: _1425  and  _1427
REMARK  431  A    between atoms: _1443  and  _1444
REMARK  432  A    between atoms: _1443  and  _1446
REMARK  433  A    between atoms: _1446  and  _1447
REMARK  434  A    between atoms: _1457  and  _1458
REMARK  435  A    between atoms: _1458  and  _1459
REMARK  436  A    between atoms: _1458  and  _1461
REMARK  437  A    between atoms: _1461  and  _1462
REMARK  438  A    between atoms: _1462  and  _1463
REMARK  439  A    between atoms: _1462  and  _1464
REMARK  440  A    between atoms: _1476  and  _1477
REMARK  441  A    between atoms: _1477  and  _1478
REMARK  442  A    between atoms: _1483  and  _1484
REMARK  443  A    between atoms: _1484  and  _1485
REMARK  444  A    between atoms: _1484  and  _1487
REMARK  445  A    between atoms: _1487  and  _1488
REMARK  446  A    between atoms: _1487  and  _1489
REMARK  447  A    between atoms: _1497  and  _1498
REMARK  448  A    between atoms: _1498  and  _1499
REMARK  449  A    between atoms: _1498  and  _1501
REMARK  450  A    between atoms: _1501  and  _1502
REMARK  451  A    between atoms: _1501  and  _1503
REMARK  452  A    between atoms: _1502  and  _1504
REMARK  453  A    between atoms: _1516  and  _1517
REMARK  454  A    between atoms: _1517  and  _1518
REMARK  455  A    between atoms: _1517  and  _1520
REMARK  456  A    between atoms: _1526  and  _1527
REMARK  457  A    between atoms: _1527  and  _1528
REMARK  458  A    between atoms: _1527  and  _1530
REMARK  459  A    between atoms: _1530  and  _1531
REMARK  460  A    between atoms: _1531  and  _1532
REMARK  461  A    between atoms: _1532  and  _1533
REMARK  462  A    between atoms: _1533  and  _1534
REMARK  463  A    between atoms: _1548  and  _1549
REMARK  464  A    between atoms: _1549  and  _1550
REMARK  465  A    between atoms: _1549  and  _1552
REMARK  466  A    between atoms: _1552  and  _1553
REMARK  467  A    between atoms: _1559  and  _1560
REMARK  468  A    between atoms: _1560  and  _1561
REMARK  469  A    between atoms: _1566  and  _1567
REMARK  470  A    between atoms: _1567  and  _1568
REMARK  471  A    between atoms: _1567  and  _1570
REMARK  472  A    between atoms: _1570  and  _1571
REMARK  473  A    between atoms: _1570  and  _1572
REMARK  474  A    between atoms: _1580  and  _1581
REMARK  475  A    between atoms: _1581  and  _1582
REMARK  476  A    between atoms: _1581  and  _1584
REMARK  477  A    between atoms: _1584  and  _1585
REMARK  478  A    between atoms: _1585  and  _1586
REMARK  479  A    between atoms: _1586  and  _1587
REMARK  480  A    between atoms: _1587  and  _1588
REMARK  481  A    between atoms: _1602  and  _1603
REMARK  482  A    between atoms: _1603  and  _1604
REMARK  483  A    between atoms: _1603  and  _1606
REMARK  484  A    between atoms: _1612  and  _1613
REMARK  485  A    between atoms: _1613  and  _1614
REMARK  486  A    between atoms: _1613  and  _1616
REMARK  487  A    between atoms: _1616  and  _1617
REMARK  488  A    between atoms: _1632  and  _1633
REMARK  489  A    between atoms: _1633  and  _1634
REMARK  490  A    between atoms: _1633  and  _1636
REMARK  491  A    between atoms: _1636  and  _1637
REMARK  492  A    between atoms: _1637  and  _1638
REMARK  493  A    between atoms: _1638  and  _1639
REMARK  494  A    between atoms: _1649  and  _1650
REMARK  495  A    between atoms: _1650  and  _1651
REMARK  496  A    between atoms: _1650  and  _1653
REMARK  497  A    between atoms: _1653  and  _1654
REMARK  498  A    between atoms: _1654  and  _1655
REMARK  499  A    between atoms: _1664  and  _1665
REMARK  500  A    between atoms: _1665  and  _1666
REMARK  501  A    between atoms: _1665  and  _1668
REMARK  502  A    between atoms: _1674  and  _1675
REMARK  503  A    between atoms: _1675  and  _1676
REMARK  504  A    between atoms: _1675  and  _1678
REMARK  505  A    between atoms: _1678  and  _1679
REMARK  506  A    between atoms: _1679  and  _1680
REMARK  507  A    between atoms: _1679  and  _1681
REMARK  508  A    between atoms: _1693  and  _1694
REMARK  509  A    between atoms: _1694  and  _1695
REMARK  510  A    between atoms: _1694  and  _1697
REMARK  511  A    between atoms: _1697  and  _1698
REMARK  512  A    between atoms: _1698  and  _1699
REMARK  513  A    between atoms: _1710  and  _1711
REMARK  514  A    between atoms: _1711  and  _1712
REMARK  515  A    between atoms: _1711  and  _1714
REMARK  516  A    between atoms: _1720  and  _1721
REMARK  517  A    between atoms: _1721  and  _1722
REMARK  518  A    between atoms: _1727  and  _1728
REMARK  519  A    between atoms: _1728  and  _1729
REMARK  520  A    between atoms: _1728  and  _1731
REMARK  521  A    between atoms: _1737  and  _1738
REMARK  522  A    between atoms: _1738  and  _1739
REMARK  523  A    between atoms: _1738  and  _1741
REMARK  524  A    between atoms: _1741  and  _1742
REMARK  525  A    between atoms: _1749  and  _1750
REMARK  526  A    between atoms: _1750  and  _1751
REMARK  527  A    between atoms: _1750  and  _1753
REMARK  528  A    between atoms: _1753  and  _1754
REMARK  529  A    between atoms: _1753  and  _1755
REMARK  530  A    between atoms: _1754  and  _1756
REMARK  531  A    between atoms: _1768  and  _1769
REMARK  532  A    between atoms: _1769  and  _1772
REMARK  533  A    between atoms: _1772  and  _1773
REMARK  534  A    between atoms: _1791  and  _1793
REMARK  535  A    between atoms: _1792  and  _1794
REMARK  536  A    between atoms: _1814  and  _1815
REMARK  537  A    between atoms: _1814  and  _1817
REMARK  538  A    between atoms: _1817  and  _1818
REMARK  539  A    between atoms: _1817  and  _1819
REMARK  540  A    between atoms: _1818  and  _1820
REMARK  541  A    between atoms: _1833  and  _1834
REMARK  542  A    between atoms: _1834  and  _1835
REMARK  543  A    between atoms: _1840  and  _1841
REMARK  544  A    between atoms: _1841  and  _1842
REMARK  545  A    between atoms: _1841  and  _1844
REMARK  546  A    between atoms: _1844  and  _1845
REMARK  547  A    between atoms: _1845  and  _1846
REMARK  548  A    between atoms: _1857  and  _1858
REMARK  549  A    between atoms: _1858  and  _1859
REMARK  550  A    between atoms: _1858  and  _1861
REMARK  551  A    between atoms: _1861  and  _1862
REMARK  552  A    between atoms: _1877  and  _1878
REMARK  553  A    between atoms: _1878  and  _1879
REMARK  554  A    between atoms: _1884  and  _1885
REMARK  555  A    between atoms: _1885  and  _1886
REMARK  556  A    between atoms: _1885  and  _1888
REMARK  557  A    between atoms: _1888  and  _1889
REMARK  558  A    between atoms: _1888  and  _1890
REMARK  559  A    between atoms: _1900  and  _1901
REMARK  560  A    between atoms: _1901  and  _1902
REMARK  561  A    between atoms: _1907  and  _1908
REMARK  562  A    between atoms: _1908  and  _1909
REMARK  563  A    between atoms: _1908  and  _1911
REMARK  564  A    between atoms: _1911  and  _1912
REMARK  565  A    between atoms: _1927  and  _1928
REMARK  566  A    between atoms: _1928  and  _1929
REMARK  567  A    between atoms: _1928  and  _1931
REMARK  568  A    between atoms: _1931  and  _1932
REMARK  569  A    between atoms: _1937  and  _1938
REMARK  570  A    between atoms: _1948  and  _1949
REMARK  571  A    between atoms: _1949  and  _1950
REMARK  572  A    between atoms: _1949  and  _1952
REMARK  573  A    between atoms: _1952  and  _1953
REMARK  574  A    between atoms: _1959  and  _1960
REMARK  575  A    between atoms: _1960  and  _1961
REMARK  576  A    between atoms: _1960  and  _1963
REMARK  577  A    between atoms: _1969  and  _1970
REMARK  578  A    between atoms: _1970  and  _1971
REMARK  579  A    between atoms: _1970  and  _1973
REMARK  580  A    between atoms: _1973  and  _1974
REMARK  581  A    between atoms: _1979  and  _1980
REMARK  582  A    between atoms: _1990  and  _1991
REMARK  583  A    between atoms: _1991  and  _1992
REMARK  584  A    between atoms: _1991  and  _1994
REMARK  585  A    between atoms: _1994  and  _1995
REMARK  586  A    between atoms: _1995  and  _1996
REMARK  587  A    between atoms: _1995  and  _1997
REMARK  588  A    between atoms: _2009  and  _2010
REMARK  589  A    between atoms: _2010  and  _2011
REMARK  590  A    between atoms: _2010  and  _2013
REMARK  591  A    between atoms: _2013  and  _2014
REMARK  592  A    between atoms: _2013  and  _2015
REMARK  593  A    between atoms: _2025  and  _2026
REMARK  594  A    between atoms: _2026  and  _2027
REMARK  595  A    between atoms: _2026  and  _2029
REMARK  596  A    between atoms: _2035  and  _2036
REMARK  597  A    between atoms: _2036  and  _2037
REMARK  598  A    between atoms: _2036  and  _2039
REMARK  599  A    between atoms: _2039  and  _2040
REMARK  600  A    between atoms: _2040  and  _2041
REMARK  601  A    between atoms: _2050  and  _2051
REMARK  602  A    between atoms: _2051  and  _2052
REMARK  603  A    between atoms: _2051  and  _2054
REMARK  604  A    between atoms: _2054  and  _2055
REMARK  605  A    between atoms: _2055  and  _2056
REMARK  606  A    between atoms: _2056  and  _2057
REMARK  607  A    between atoms: _2057  and  _2058
REMARK  608  A    between atoms: _2072  and  _2073
REMARK  609  A    between atoms: _2073  and  _2074
REMARK  610  A    between atoms: _2073  and  _2076
REMARK  611  A    between atoms: _2076  and  _2077
REMARK  612  A    between atoms: _2076  and  _2078
REMARK  613  A    between atoms: _2088  and  _2089
REMARK  614  A    between atoms: _2089  and  _2090
REMARK  615  A    between atoms: _2089  and  _2092
REMARK  616  A    between atoms: _2092  and  _2093
REMARK  617  A    between atoms: _2092  and  _2094
REMARK  618  A    between atoms: _2102  and  _2103
REMARK  619  A    between atoms: _2103  and  _2104
REMARK  620  A    between atoms: _2103  and  _2106
REMARK  621  A    between atoms: _2106  and  _2107
REMARK  622  A    between atoms: _2106  and  _2108
REMARK  623  A    between atoms: _2118  and  _2119
REMARK  624  A    between atoms: _2119  and  _2120
REMARK  625  A    between atoms: _2119  and  _2122
REMARK  626  A    between atoms: _2122  and  _2123
REMARK  627  A    between atoms: _2122  and  _2124
REMARK  628  A    between atoms: _2123  and  _2125
REMARK  629  A    between atoms: _2137  and  _2138
REMARK  630  A    between atoms: _2138  and  _2139
REMARK  631  A    between atoms: _2138  and  _2141
REMARK  632  A    between atoms: _2141  and  _2142
REMARK  633  A    between atoms: _2141  and  _2143
REMARK  634  A    between atoms: _2151  and  _2152
REMARK  635  A    between atoms: _2152  and  _2153
REMARK  636  A    between atoms: _2152  and  _2155
REMARK  637  A    between atoms: _2155  and  _2156
REMARK  638  A    between atoms: _2156  and  _2157
REMARK  639  A    between atoms: _2157  and  _2158
REMARK  640  A    between atoms: _2158  and  _2159
REMARK  641  A    between atoms: _2173  and  _2174
REMARK  642  A    between atoms: _2174  and  _2175
REMARK  643  A    between atoms: _2174  and  _2177
REMARK  644  A    between atoms: _2177  and  _2178
REMARK  645  A    between atoms: _2190  and  _2191
REMARK  646  A    between atoms: _2191  and  _2192
REMARK  647  A    between atoms: _2191  and  _2194
REMARK  648  A    between atoms: _2194  and  _2195
REMARK  649  A    between atoms: _2204  and  _2205
REMARK  650  A    between atoms: _2205  and  _2206
REMARK  651  A    between atoms: _2205  and  _2208
REMARK  652  A    between atoms: _2208  and  _2209
REMARK  653  A    between atoms: _2216  and  _2217
REMARK  654  A    between atoms: _2217  and  _2218
REMARK  655  A    between atoms: _2217  and  _2220
REMARK  656  A    between atoms: _2220  and  _2221
REMARK  657  A    between atoms: _2228  and  _2229
REMARK  658  A    between atoms: _2229  and  _2230
REMARK  659  A    between atoms: _2229  and  _2232
REMARK  660  A    between atoms: _2232  and  _2233
REMARK  661  A    between atoms: _2233  and  _2234
REMARK  662  A    between atoms: _2243  and  _2244
REMARK  663  A    between atoms: _2244  and  _2245
REMARK  664  A    between atoms: _2244  and  _2247
REMARK  665  A    between atoms: _2247  and  _2248
REMARK  666  A    between atoms: _2248  and  _2249
REMARK  667  A    between atoms: _2260  and  _2261
REMARK  668  A    between atoms: _2261  and  _2262
REMARK  669  A    between atoms: _2261  and  _2264
REMARK  670  A    between atoms: _2264  and  _2265
REMARK  671  A    between atoms: _2270  and  _2271
REMARK  672  A    between atoms: _2281  and  _2282
REMARK  673  A    between atoms: _2282  and  _2283
REMARK  674  A    between atoms: _2282  and  _2285
REMARK  675  A    between atoms: _2291  and  _2292
REMARK  676  A    between atoms: _2292  and  _2293
REMARK  677  A    between atoms: _2292  and  _2295
REMARK  678  A    between atoms: _2295  and  _2296
REMARK  679  A    between atoms: _2315  and  _2316
REMARK  680  A    between atoms: _2316  and  _2317
REMARK  681  A    between atoms: _2316  and  _2319
REMARK  682  A    between atoms: _2319  and  _2320
REMARK  683  A    between atoms: _2320  and  _2321
REMARK  684  A    between atoms: _2330  and  _2331
REMARK  685  A    between atoms: _2331  and  _2332
REMARK  686  A    between atoms: _2331  and  _2334
REMARK  687  A    between atoms: _2334  and  _2335
REMARK  688  A    between atoms: _2341  and  _2342
REMARK  689  A    between atoms: _2342  and  _2343
REMARK  690  A    between atoms: _2342  and  _2345
REMARK  691  A    between atoms: _2345  and  _2346
REMARK  692  A    between atoms: _2352  and  _2353
REMARK  693  A    between atoms: _2353  and  _2354
REMARK  694  A    between atoms: _2353  and  _2356
REMARK  695  A    between atoms: _2362  and  _2363
REMARK  696  A    between atoms: _2363  and  _2364
REMARK  697  A    between atoms: _2369  and  _2370
REMARK  698  A    between atoms: _2370  and  _2371
REMARK  699  A    between atoms: _2376  and  _2377
REMARK  700  A    between atoms: _2377  and  _2378
REMARK  701  A    between atoms: _2377  and  _2380
REMARK  702  A    between atoms: _2380  and  _2381
REMARK  703  A    between atoms: _2387  and  _2388
REMARK  704  A    between atoms: _2388  and  _2389
REMARK  705  A    between atoms: _2388  and  _2391
REMARK  706  A    between atoms: _2391  and  _2392
REMARK  707  A    between atoms: _2407  and  _2408
REMARK  708  A    between atoms: _2408  and  _2409
REMARK  709  A    between atoms: _2408  and  _2411
REMARK  710  A    between atoms: _2411  and  _2412
REMARK  711  A    between atoms: _2411  and  _2413
REMARK  712  A    between atoms: _2421  and  _2422
REMARK  713  A    between atoms: _2422  and  _2423
REMARK  714  A    between atoms: _2422  and  _2425
REMARK  715  A    between atoms: _2425  and  _2426
REMARK  716  A    between atoms: _2425  and  _2427
REMARK  717  A    between atoms: _2437  and  _2438
REMARK  718  A    between atoms: _2438  and  _2439
REMARK  719  A    between atoms: _2438  and  _2441
REMARK  720  A    between atoms: _2441  and  _2442
REMARK  721  A    between atoms: _2442  and  _2443
REMARK  722  A    between atoms: _2443  and  _2444
REMARK  723  A    between atoms: _2461  and  _2462
REMARK  724  A    between atoms: _2462  and  _2463
REMARK  725  A    between atoms: _2462  and  _2465
REMARK  726  A    between atoms: _2465  and  _2466
REMARK  727  A    between atoms: _2465  and  _2467
REMARK  728  A    between atoms: _2475  and  _2476
REMARK  729  A    between atoms: _2476  and  _2477
REMARK  730  A    between atoms: _2476  and  _2479
REMARK  731  A    between atoms: _2479  and  _2480
REMARK  732  A    between atoms: _2487  and  _2488
REMARK  733  A    between atoms: _2488  and  _2489
REMARK  734  A    between atoms: _2488  and  _2491
REMARK  735  A    between atoms: _2491  and  _2492
REMARK  736  A    between atoms: _2491  and  _2493
REMARK  737  A    between atoms: _2501  and  _2502
REMARK  738  A    between atoms: _2502  and  _2503
REMARK  739  A    between atoms: _2508  and  _2509
REMARK  740  A    between atoms: _2509  and  _2510
REMARK  741  A    between atoms: _2509  and  _2512
REMARK  742  A    between atoms: _2512  and  _2513
REMARK  743  A    between atoms: _2513  and  _2514
REMARK  744  A    between atoms: _2524  and  _2525
REMARK  745  A    between atoms: _2537  and  _2538
REMARK  746  A    between atoms: _2538  and  _2539
REMARK  747  A    between atoms: _2538  and  _2541
REMARK  748  A    between atoms: _2541  and  _2542
REMARK  749  A    between atoms: _2542  and  _2543
REMARK  750  A    between atoms: _2543  and  _2544
REMARK  751  A    between atoms: _2554  and  _2555
REMARK  752  A    between atoms: _2555  and  _2556
REMARK  753  A    between atoms: _2561  and  _2562
REMARK  754  A    between atoms: _2562  and  _2563
REMARK  755  A    between atoms: _2562  and  _2565
REMARK  756  A    between atoms: _2565  and  _2566
REMARK  757  A    between atoms: _2566  and  _2567
REMARK  758  A    between atoms: _2567  and  _2568
REMARK  759  A    between atoms: _2585  and  _2586
REMARK  760  A    between atoms: _2586  and  _2587
REMARK  761  A    between atoms: _2592  and  _2593
REMARK  762  A    between atoms: _2593  and  _2594
REMARK  763  A    between atoms: _2593  and  _2596
REMARK  764  A    between atoms: _2596  and  _2597
REMARK  765  A    between atoms: _2596  and  _2598
REMARK  766  A    between atoms: _2606  and  _2607
REMARK  767  A    between atoms: _2607  and  _2608
REMARK  768  A    between atoms: _2607  and  _2610
REMARK  769  A    between atoms: _2610  and  _2611
REMARK  770  A    between atoms: _2611  and  _2612
REMARK  771  A    between atoms: _2612  and  _2613
REMARK  772  A    between atoms: _2613  and  _2614
REMARK  773  A    between atoms: _2628  and  _2629
REMARK  774  A    between atoms: _2629  and  _2630
REMARK  775  A    between atoms: _2629  and  _2632
REMARK  776  A    between atoms: _2632  and  _2633
REMARK  777  A    between atoms: _2632  and  _2634
REMARK  778  A    between atoms: _2644  and  _2645
REMARK  779  A    between atoms: _2645  and  _2646
REMARK  780  A    between atoms: _2645  and  _2648
REMARK  781  A    between atoms: _2648  and  _2649
REMARK  782  A    between atoms: _2648  and  _2650
REMARK  783  A    between atoms: _2649  and  _2651
REMARK  784  A    between atoms: _2663  and  _2664
REMARK  785  A    between atoms: _2664  and  _2665
REMARK  786  A    between atoms: _2664  and  _2667
REMARK  787  A    between atoms: _2667  and  _2668
REMARK  788  A    between atoms: _2668  and  _2669
REMARK  789  A    between atoms: _2668  and  _2670
REMARK  790  A    between atoms: _2682  and  _2683
REMARK  791  A    between atoms: _2683  and  _2684
REMARK  792  A    between atoms: _2683  and  _2686
REMARK  793  A    between atoms: _2686  and  _2687
REMARK  794  A    between atoms: _2699  and  _2700
REMARK  795  A    between atoms: _2700  and  _2701
REMARK  796  A    between atoms: _2700  and  _2703
REMARK  797  A    between atoms: _2703  and  _2704
REMARK  798  A    between atoms: _2704  and  _2705
REMARK  799  A    between atoms: _2704  and  _2706
REMARK  800  A    between atoms: _2718  and  _2719
REMARK  801  A    between atoms: _2719  and  _2720
REMARK  802  A    between atoms: _2719  and  _2722
REMARK  803  A    between atoms: _2722  and  _2723
REMARK  804  A    between atoms: _2723  and  _2724
REMARK  805  A    between atoms: _2724  and  _2725
REMARK  806  A    between atoms: _2725  and  _2726
REMARK  807  A    between atoms: _2740  and  _2741
REMARK  808  A    between atoms: _2741  and  _2742
REMARK  809  A    between atoms: _2741  and  _2744
REMARK  810  A    between atoms: _2744  and  _2745
REMARK  811  A    between atoms: _2745  and  _2746
REMARK  812  A    between atoms: _2755  and  _2756
REMARK  813  A    between atoms: _2756  and  _2757
REMARK  814  A    between atoms: _2756  and  _2759
REMARK  815  A    between atoms: _2759  and  _2760
REMARK  816  A    between atoms: _2767  and  _2768
REMARK  817  A    between atoms: _2768  and  _2769
REMARK  818  A    between atoms: _2768  and  _2771
REMARK  819  A    between atoms: _2771  and  _2772
REMARK  820  A    between atoms: _2772  and  _2773
REMARK  821  A    between atoms: _2784  and  _2785
REMARK  822  A    between atoms: _2785  and  _2786
REMARK  823  A    between atoms: _2785  and  _2788
REMARK  824  A    between atoms: _2788  and  _2789
REMARK  825  A    between atoms: _2788  and  _2790
REMARK  826  A    between atoms: _2798  and  _2799
REMARK  827  A    between atoms: _2799  and  _2800
REMARK  828  A    between atoms: _2799  and  _2802
REMARK  829  A    between atoms: _2802  and  _2803
REMARK  830  A    between atoms: _2803  and  _2804
REMARK  831  A    between atoms: _2813  and  _2814
REMARK  832  A    between atoms: _2814  and  _2815
REMARK  833  A    between atoms: _2814  and  _2817
REMARK  834  A    between atoms: _2817  and  _2818
REMARK  835  A    between atoms: _2823  and  _2824
REMARK  836  A    between atoms: _2834  and  _2835
REMARK  837  A    between atoms: _2835  and  _2838
REMARK  838  A    between atoms: _2838  and  _2839
REMARK  839  A    between atoms: _2839  and  _2840
REMARK  840  A    between atoms: _2839  and  _2841
REMARK  841  A    between atoms: _2884  and  _2885
REMARK  842  A    between atoms: _2884  and  _2887
REMARK  843  A    between atoms: _2887  and  _2888
REMARK  844  A    between atoms: _2888  and  _2889
REMARK  845  A    between atoms: _2899  and  _2900
REMARK  846  A    between atoms: _2900  and  _2901
REMARK  847  A    between atoms: _2900  and  _2903
REMARK  848  A    between atoms: _2903  and  _2904
REMARK  849  A    between atoms: _2904  and  _2905
REMARK  850  A    between atoms: _2905  and  _2906
REMARK  851  A    between atoms: _2923  and  _2924
REMARK  852  A    between atoms: _2924  and  _2925
REMARK  853  A    between atoms: _2924  and  _2927
REMARK  854  A    between atoms: _2927  and  _2928
REMARK  855  A    between atoms: _2928  and  _2929
REMARK  856  A    between atoms: _2929  and  _2930
REMARK  857  A    between atoms: _2947  and  _2948
REMARK  858  A    between atoms: _2948  and  _2949
REMARK  859  A    between atoms: _2948  and  _2951
REMARK  860  A    between atoms: _2951  and  _2952
REMARK  861  A    between atoms: _2951  and  _2953
REMARK  862  A    between atoms: _2952  and  _2954
REMARK  863  A    between atoms: _2966  and  _2967
REMARK  864  A    between atoms: _2967  and  _2968
REMARK  865  A    between atoms: _2967  and  _2970
REMARK  866  A    between atoms: _2970  and  _2971
REMARK  867  A    between atoms: _2971  and  _2972
REMARK  868  A    between atoms: _2972  and  _2973
REMARK  869  A    between atoms: _2973  and  _2974
REMARK  870  A    between atoms: _2988  and  _2989
REMARK  871  A    between atoms: _2989  and  _2990
REMARK  872  A    between atoms: _2989  and  _2992
REMARK  873  A    between atoms: _2992  and  _2993
REMARK  874  A    between atoms: _2993  and  _2994
REMARK  875  A    between atoms: _3003  and  _3004
REMARK  876  A    between atoms: _3004  and  _3005
REMARK  877  A    between atoms: _3004  and  _3007
REMARK  878  A    between atoms: _3007  and  _3008
REMARK  879  A    between atoms: _3007  and  _3009
REMARK  880  A    between atoms: _3008  and  _3010
REMARK  881  A    between atoms: _3022  and  _3023
REMARK  882  A    between atoms: _3023  and  _3024
REMARK  883  A    between atoms: _3023  and  _3026
REMARK  884  A    between atoms: _3026  and  _3027
REMARK  885  A    between atoms: _3026  and  _3028
REMARK  886  A    between atoms: _3038  and  _3039
REMARK  887  A    between atoms: _3039  and  _3040
REMARK  888  A    between atoms: _3039  and  _3042
REMARK  889  A    between atoms: _3042  and  _3043
REMARK  890  A    between atoms: _3043  and  _3044
REMARK  891  A    between atoms: _3044  and  _3045
REMARK  892  A    between atoms: _3045  and  _3046
REMARK  893  A    between atoms: _3060  and  _3061
REMARK  894  A    between atoms: _3061  and  _3062
REMARK  895  A    between atoms: _3061  and  _3064
REMARK  896  A    between atoms: _3064  and  _3065
REMARK  897  A    between atoms: _3065  and  _3066
REMARK  898  A    between atoms: _3066  and  _3067
REMARK  899  A    between atoms: _3067  and  _3068
REMARK  900  A    between atoms: _3082  and  _3083
REMARK  901  A    between atoms: _3083  and  _3084
REMARK  902  A    between atoms: _3083  and  _3086
REMARK  903  A    between atoms: _3086  and  _3087
REMARK  904  A    between atoms: _3099  and  _3100
REMARK  905  A    between atoms: _3100  and  _3101
REMARK  906  A    between atoms: _3100  and  _3103
REMARK  907  A    between atoms: _3103  and  _3104
REMARK  908  A    between atoms: _3110  and  _3111
REMARK  909  A    between atoms: _3111  and  _3112
REMARK  910  A    between atoms: _3111  and  _3114
REMARK  911  A    between atoms: _3114  and  _3115
REMARK  912  A    between atoms: _3115  and  _3116
REMARK  913  A    between atoms: _3127  and  _3128
REMARK  914  A    between atoms: _3128  and  _3129
REMARK  915  A    between atoms: _3128  and  _3131
REMARK  916  A    between atoms: _3131  and  _3132
REMARK  917  A    between atoms: _3147  and  _3148
REMARK  918  A    between atoms: _3148  and  _3149
REMARK  919  A    between atoms: _3148  and  _3151
REMARK  920  A    between atoms: _3151  and  _3152
REMARK  921  A    between atoms: _3151  and  _3153
REMARK  922  A    between atoms: _3152  and  _3154
REMARK  923  A    between atoms: _3166  and  _3167
REMARK  924  A    between atoms: _3167  and  _3168
REMARK  925  A    between atoms: _3173  and  _3174
REMARK  926  A    between atoms: _3174  and  _3175
REMARK  927  A    between atoms: _3174  and  _3177
REMARK  928  A    between atoms: _3177  and  _3178
REMARK  929  A    between atoms: _3183  and  _3184
REMARK  930  A    between atoms: _3195  and  _3196
REMARK  931  A    between atoms: _3208  and  _3209
REMARK  932  A    between atoms: _3209  and  _3210
REMARK  933  A    between atoms: _3209  and  _3212
REMARK  934  A    between atoms: _3212  and  _3213
REMARK  935  A    between atoms: _3212  and  _3214
REMARK  936  A    between atoms: _3213  and  _3215
REMARK  937  A    between atoms: _3227  and  _3228
REMARK  938  A    between atoms: _3228  and  _3229
REMARK  939  A    between atoms: _3228  and  _3231
REMARK  940  A    between atoms: _3231  and  _3232
REMARK  941  A    between atoms: _3231  and  _3233
REMARK  942  A    between atoms: _3241  and  _3242
REMARK  943  A    between atoms: _3242  and  _3243
REMARK  944  A    between atoms: _3242  and  _3245
REMARK  945  A    between atoms: _3245  and  _3246
REMARK  946  A    between atoms: _3246  and  _3247
REMARK  947  A    between atoms: _3246  and  _3248
REMARK  948  A    between atoms: _3260  and  _3261
REMARK  949  A    between atoms: _3261  and  _3262
REMARK  950  A    between atoms: _3261  and  _3264
REMARK  951  A    between atoms: _3264  and  _3265
REMARK  952  A    between atoms: _3280  and  _3281
REMARK  953  A    between atoms: _3281  and  _3282
REMARK  954  A    between atoms: _3281  and  _3284
REMARK  955  A    between atoms: _3284  and  _3285
REMARK  956  A    between atoms: _3284  and  _3286
REMARK  957  A    between atoms: _3296  and  _3297
REMARK  958  A    between atoms: _3297  and  _3298
REMARK  959  A    between atoms: _3297  and  _3300
REMARK  960  A    between atoms: _3300  and  _3301
REMARK  961  A    between atoms: _3301  and  _3302
REMARK                            x       y       z     vdW  Elec       q    Type
REMARK                         _______ _______ _______ _____ _____    ______ ____
ROOT
ATOM      1  C   UNL     1       7.756  40.428  42.697  0.00  0.00    +0.000 C 
ENDROOT
TORSDOF 0
REMARK  Name = /Users/mlugowska/PhD/ML_residence_time_prediction/protein_files/5J20_protein.pdb
REMARK  961 active torsions:
REMARK  status: ('A' for Active; 'I' for Inactive)
REMARK    1  A    between atoms: _2  and  _3
REMARK    2  A    between atoms: _2  and  _5
REMARK    3  A    between atoms: _10  and  _11
REMARK    4  A    between atoms: _11  and  _12
REMARK    5  A    between atoms: _11  and  _14
REMARK    6  A    between atoms: _14  and  _15
REMARK    7  A    between atoms: _14  and  _16
REMARK    8  A    between atoms: _26  and  _27
REMARK    9  A    between atoms: _27  and  _28
REMARK   10  A    between atoms: _27  and  _30
REMARK   11  A    between atoms: _30  and  _31
REMARK   12  A    between atoms: _31  and  _32
REMARK   13  A    between atoms: _41  and  _42
REMARK   14  A    between atoms: _42  and  _43
REMARK   15  A    between atoms: _42  and  _45
REMARK   16  A    between atoms: _45  and  _46
REMARK   17  A    between atoms: _45  and  _47
REMARK   18  A    between atoms: _55  and  _56
REMARK   19  A    between atoms: _56  and  _57
REMARK   20  A    between atoms: _56  and  _59
REMARK   21  A    between atoms: _59  and  _60
REMARK   22  A    between atoms: _75  and  _76
REMARK   23  A    between atoms: _76  and  _77
REMARK   24  A    between atoms: _76  and  _79
REMARK   25  A    between atoms: _85  and  _86
REMARK   26  A    between atoms: _86  and  _87
REMARK   27  A    between atoms: _86  and  _89
REMARK   28  A    between atoms: _89  and  _90
REMARK   29  A    between atoms: _105  and  _106
REMARK   30  A    between atoms: _106  and  _107
REMARK   31  A    between atoms: _106  and  _109
REMARK   32  A    between atoms: _109  and  _110
REMARK   33  A    between atoms: _110  and  _111
REMARK   34  A    between atoms: _122  and  _123
REMARK   35  A    between atoms: _123  and  _124
REMARK   36  A    between atoms: _123  and  _126
REMARK   37  A    between atoms: _132  and  _133
REMARK   38  A    between atoms: _133  and  _134
REMARK   39  A    between atoms: _133  and  _136
REMARK   40  A    between atoms: _136  and  _137
REMARK   41  A    between atoms: _137  and  _138
REMARK   42  A    between atoms: _147  and  _148
REMARK   43  A    between atoms: _148  and  _149
REMARK   44  A    between atoms: _148  and  _151
REMARK   45  A    between atoms: _151  and  _152
REMARK   46  A    between atoms: _151  and  _153
REMARK   47  A    between atoms: _152  and  _154
REMARK   48  A    between atoms: _166  and  _167
REMARK   49  A    between atoms: _167  and  _168
REMARK   50  A    between atoms: _167  and  _170
REMARK   51  A    between atoms: _176  and  _177
REMARK   52  A    between atoms: _177  and  _178
REMARK   53  A    between atoms: _177  and  _180
REMARK   54  A    between atoms: _180  and  _181
REMARK   55  A    between atoms: _181  and  _182
REMARK   56  A    between atoms: _193  and  _194
REMARK   57  A    between atoms: _194  and  _195
REMARK   58  A    between atoms: _194  and  _197
REMARK   59  A    between atoms: _197  and  _198
REMARK   60  A    between atoms: _198  and  _199
REMARK   61  A    between atoms: _198  and  _200
REMARK   62  A    between atoms: _212  and  _213
REMARK   63  A    between atoms: _213  and  _214
REMARK   64  A    between atoms: _213  and  _216
REMARK   65  A    between atoms: _216  and  _217
REMARK   66  A    between atoms: _217  and  _218
REMARK   67  A    between atoms: _218  and  _219
REMARK   68  A    between atoms: _229  and  _230
REMARK   69  A    between atoms: _230  and  _231
REMARK   70  A    between atoms: _230  and  _233
REMARK   71  A    between atoms: _233  and  _234
REMARK   72  A    between atoms: _240  and  _241
REMARK   73  A    between atoms: _241  and  _242
REMARK   74  A    between atoms: _241  and  _244
REMARK   75  A    between atoms: _244  and  _245
REMARK   76  A    between atoms: _245  and  _246
REMARK   77  A    between atoms: _245  and  _247
REMARK   78  A    between atoms: _259  and  _260
REMARK   79  A    between atoms: _260  and  _261
REMARK   80  A    between atoms: _260  and  _263
REMARK   81  A    between atoms: _263  and  _264
REMARK   82  A    between atoms: _263  and  _265
REMARK   83  A    between atoms: _264  and  _266
REMARK   84  A    between atoms: _278  and  _279
REMARK   85  A    between atoms: _279  and  _280
REMARK   86  A    between atoms: _279  and  _282
REMARK   87  A    between atoms: _282  and  _283
REMARK   88  A    between atoms: _282  and  _284
REMARK   89  A    between atoms: _283  and  _285
REMARK   90  A    between atoms: _297  and  _298
REMARK   91  A    between atoms: _298  and  _299
REMARK   92  A    between atoms: _298  and  _301
REMARK   93  A    between atoms: _301  and  _302
REMARK   94  A    between atoms: _311  and  _312
REMARK   95  A    between atoms: _312  and  _313
REMARK   96  A    between atoms: _312  and  _315
REMARK   97  A    between atoms: _315  and  _316
REMARK   98  A    between atoms: _315  and  _317
REMARK   99  A    between atoms: _325  and  _326
REMARK  100  A    between atoms: _326  and  _327
REMARK  101  A    between atoms: _326  and  _329
REMARK  102  A    between atoms: _329  and  _330
REMARK  103  A    between atoms: _345  and  _346
REMARK  104  A    between atoms: _346  and  _347
REMARK  105  A    between atoms: _346  and  _349
REMARK  106  A    between atoms: _349  and  _350
REMARK  107  A    between atoms: _355  and  _356
REMARK  108  A    between atoms: _366  and  _367
REMARK  109  A    between atoms: _367  and  _368
REMARK  110  A    between atoms: _367  and  _370
REMARK  111  A    between atoms: _370  and  _371
REMARK  112  A    between atoms: _377  and  _378
REMARK  113  A    between atoms: _378  and  _379
REMARK  114  A    between atoms: _378  and  _381
REMARK  115  A    between atoms: _381  and  _382
REMARK  116  A    between atoms: _391  and  _392
REMARK  117  A    between atoms: _392  and  _393
REMARK  118  A    between atoms: _392  and  _395
REMARK  119  A    between atoms: _395  and  _396
REMARK  120  A    between atoms: _396  and  _397
REMARK  121  A    between atoms: _397  and  _398
REMARK  122  A    between atoms: _398  and  _399
REMARK  123  A    between atoms: _413  and  _414
REMARK  124  A    between atoms: _414  and  _415
REMARK  125  A    between atoms: _414  and  _417
REMARK  126  A    between atoms: _417  and  _418
REMARK  127  A    between atoms: _418  and  _419
REMARK  128  A    between atoms: _428  and  _429
REMARK  129  A    between atoms: _429  and  _430
REMARK  130  A    between atoms: _429  and  _432
REMARK  131  A    between atoms: _432  and  _433
REMARK  132  A    between atoms: _432  and  _434
REMARK  133  A    between atoms: _433  and  _435
REMARK  134  A    between atoms: _447  and  _448
REMARK  135  A    between atoms: _448  and  _449
REMARK  136  A    between atoms: _448  and  _451
REMARK  137  A    between atoms: _451  and  _452
REMARK  138  A    between atoms: _467  and  _468
REMARK  139  A    between atoms: _468  and  _469
REMARK  140  A    between atoms: _468  and  _471
REMARK  141  A    between atoms: _471  and  _472
REMARK  142  A    between atoms: _472  and  _473
REMARK  143  A    between atoms: _472  and  _474
REMARK  144  A    between atoms: _486  and  _487
REMARK  145  A    between atoms: _487  and  _488
REMARK  146  A    between atoms: _487  and  _490
REMARK  147  A    between atoms: _490  and  _491
REMARK  148  A    between atoms: _491  and  _492
REMARK  149  A    between atoms: _492  and  _493
REMARK  150  A    between atoms: _510  and  _511
REMARK  151  A    between atoms: _511  and  _512
REMARK  152  A    between atoms: _511  and  _514
REMARK  153  A    between atoms: _514  and  _515
REMARK  154  A    between atoms: _515  and  _516
REMARK  155  A    between atoms: _525  and  _526
REMARK  156  A    between atoms: _526  and  _527
REMARK  157  A    between atoms: _526  and  _529
REMARK  158  A    between atoms: _529  and  _530
REMARK  159  A    between atoms: _530  and  _531
REMARK  160  A    between atoms: _530  and  _532
REMARK  161  A    between atoms: _544  and  _545
REMARK  162  A    between atoms: _545  and  _546
REMARK  163  A    between atoms: _545  and  _548
REMARK  164  A    between atoms: _548  and  _549
REMARK  165  A    between atoms: _548  and  _550
REMARK  166  A    between atoms: _549  and  _551
REMARK  167  A    between atoms: _563  and  _564
REMARK  168  A    between atoms: _564  and  _565
REMARK  169  A    between atoms: _564  and  _567
REMARK  170  A    between atoms: _567  and  _568
REMARK  171  A    between atoms: _574  and  _575
REMARK  172  A    between atoms: _575  and  _576
REMARK  173  A    between atoms: _575  and  _578
REMARK  174  A    between atoms: _578  and  _579
REMARK  175  A    between atoms: _588  and  _589
REMARK  176  A    between atoms: _589  and  _590
REMARK  177  A    between atoms: _589  and  _592
REMARK  178  A    between atoms: _592  and  _593
REMARK  179  A    between atoms: _599  and  _600
REMARK  180  A    between atoms: _600  and  _601
REMARK  181  A    between atoms: _600  and  _603
REMARK  182  A    between atoms: _603  and  _604
REMARK  183  A    between atoms: _610  and  _611
REMARK  184  A    between atoms: _611  and  _612
REMARK  185  A    between atoms: _611  and  _614
REMARK  186  A    between atoms: _614  and  _615
REMARK  187  A    between atoms: _622  and  _623
REMARK  188  A    between atoms: _623  and  _624
REMARK  189  A    between atoms: _623  and  _626
REMARK  190  A    between atoms: _632  and  _633
REMARK  191  A    between atoms: _633  and  _634
REMARK  192  A    between atoms: _633  and  _636
REMARK  193  A    between atoms: _636  and  _637
REMARK  194  A    between atoms: _637  and  _638
REMARK  195  A    between atoms: _637  and  _639
REMARK  196  A    between atoms: _651  and  _652
REMARK  197  A    between atoms: _652  and  _653
REMARK  198  A    between atoms: _652  and  _655
REMARK  199  A    between atoms: _655  and  _656
REMARK  200  A    between atoms: _663  and  _664
REMARK  201  A    between atoms: _664  and  _665
REMARK  202  A    between atoms: _664  and  _667
REMARK  203  A    between atoms: _667  and  _668
REMARK  204  A    between atoms: _668  and  _669
REMARK  205  A    between atoms: _669  and  _670
REMARK  206  A    between atoms: _670  and  _671
REMARK  207  A    between atoms: _685  and  _686
REMARK  208  A    between atoms: _686  and  _687
REMARK  209  A    between atoms: _686  and  _689
REMARK  210  A    between atoms: _689  and  _690
REMARK  211  A    between atoms: _689  and  _691
REMARK  212  A    between atoms: _690  and  _692
REMARK  213  A    between atoms: _704  and  _705
REMARK  214  A    between atoms: _705  and  _706
REMARK  215  A    between atoms: _705  and  _708
REMARK  216  A    between atoms: _708  and  _709
REMARK  217  A    between atoms: _709  and  _710
REMARK  218  A    between atoms: _710  and  _711
REMARK  219  A    between atoms: _728  and  _729
REMARK  220  A    between atoms: _729  and  _730
REMARK  221  A    between atoms: _729  and  _732
REMARK  222  A    between atoms: _732  and  _733
REMARK  223  A    between atoms: _738  and  _739
REMARK  224  A    between atoms: _749  and  _750
REMARK  225  A    between atoms: _750  and  _751
REMARK  226  A    between atoms: _750  and  _753
REMARK  227  A    between atoms: _753  and  _754
REMARK  228  A    between atoms: _754  and  _755
REMARK  229  A    between atoms: _764  and  _765
REMARK  230  A    between atoms: _765  and  _766
REMARK  231  A    between atoms: _765  and  _768
REMARK  232  A    between atoms: _772  and  _773
REMARK  233  A    between atoms: _773  and  _774
REMARK  234  A    between atoms: _773  and  _776
REMARK  235  A    between atoms: _776  and  _777
REMARK  236  A    between atoms: _777  and  _778
REMARK  237  A    between atoms: _777  and  _779
REMARK  238  A    between atoms: _791  and  _792
REMARK  239  A    between atoms: _792  and  _793
REMARK  240  A    between atoms: _792  and  _795
REMARK  241  A    between atoms: _795  and  _796
REMARK  242  A    between atoms: _795  and  _797
REMARK  243  A    between atoms: _805  and  _806
REMARK  244  A    between atoms: _806  and  _807
REMARK  245  A    between atoms: _806  and  _809
REMARK  246  A    between atoms: _809  and  _810
REMARK  247  A    between atoms: _818  and  _819
REMARK  248  A    between atoms: _831  and  _832
REMARK  249  A    between atoms: _832  and  _833
REMARK  250  A    between atoms: _832  and  _835
REMARK  251  A    between atoms: _835  and  _836
REMARK  252  A    between atoms: _842  and  _843
REMARK  253  A    between atoms: _843  and  _844
REMARK  254  A    between atoms: _843  and  _846
REMARK  255  A    between atoms: _846  and  _847
REMARK  256  A    between atoms: _847  and  _848
REMARK  257  A    between atoms: _848  and  _849
REMARK  258  A    between atoms: _849  and  _850
REMARK  259  A    between atoms: _864  and  _865
REMARK  260  A    between atoms: _865  and  _866
REMARK  261  A    between atoms: _865  and  _868
REMARK  262  A    between atoms: _868  and  _869
REMARK  263  A    between atoms: _869  and  _870
REMARK  264  A    between atoms: _869  and  _871
REMARK  265  A    between atoms: _883  and  _884
REMARK  266  A    between atoms: _884  and  _885
REMARK  267  A    between atoms: _884  and  _887
REMARK  268  A    between atoms: _887  and  _888
REMARK  269  A    between atoms: _895  and  _896
REMARK  270  A    between atoms: _896  and  _897
REMARK  271  A    between atoms: _896  and  _899
REMARK  272  A    between atoms: _899  and  _900
REMARK  273  A    between atoms: _906  and  _907
REMARK  274  A    between atoms: _907  and  _908
REMARK  275  A    between atoms: _913  and  _914
REMARK  276  A    between atoms: _914  and  _915
REMARK  277  A    between atoms: _914  and  _917
REMARK  278  A    between atoms: _917  and  _918
REMARK  279  A    between atoms: _918  and  _919
REMARK  280  A    between atoms: _919  and  _920
REMARK  281  A    between atoms: _920  and  _921
REMARK  282  A    between atoms: _935  and  _936
REMARK  283  A    between atoms: _936  and  _937
REMARK  284  A    between atoms: _936  and  _939
REMARK  285  A    between atoms: _939  and  _940
REMARK  286  A    between atoms: _940  and  _941
REMARK  287  A    between atoms: _950  and  _951
REMARK  288  A    between atoms: _951  and  _952
REMARK  289  A    between atoms: _951  and  _954
REMARK  290  A    between atoms: _954  and  _955
REMARK  291  A    between atoms: _955  and  _956
REMARK  292  A    between atoms: _955  and  _957
REMARK  293  A    between atoms: _969  and  _970
REMARK  294  A    between atoms: _970  and  _971
REMARK  295  A    between atoms: _970  and  _973
REMARK  296  A    between atoms: _973  and  _974
REMARK  297  A    between atoms: _986  and  _987
REMARK  298  A    between atoms: _987  and  _988
REMARK  299  A    between atoms: _987  and  _990
REMARK  300  A    between atoms: _990  and  _991
REMARK  301  A    between atoms: _990  and  _992
REMARK  302  A    between atoms: _991  and  _993
REMARK  303  A    between atoms: _1005  and  _1006
REMARK  304  A    between atoms: _1006  and  _1007
REMARK  305  A    between atoms: _1006  and  _1009
REMARK  306  A    between atoms: _1009  and  _1010
REMARK  307  A    between atoms: _1019  and  _1020
REMARK  308  A    between atoms: _1020  and  _1021
REMARK  309  A    between atoms: _1020  and  _1023
REMARK  310  A    between atoms: _1023  and  _1024
REMARK  311  A    between atoms: _1024  and  _1025
REMARK  312  A    between atoms: _1024  and  _1026
REMARK  313  A    between atoms: _1038  and  _1039
REMARK  314  A    between atoms: _1039  and  _1040
REMARK  315  A    between atoms: _1039  and  _1042
REMARK  316  A    between atoms: _1042  and  _1043
REMARK  317  A    between atoms: _1042  and  _1044
REMARK  318  A    between atoms: _1043  and  _1045
REMARK  319  A    between atoms: _1058  and  _1059
REMARK  320  A    between atoms: _1071  and  _1072
REMARK  321  A    between atoms: _1072  and  _1073
REMARK  322  A    between atoms: _1072  and  _1075
REMARK  323  A    between atoms: _1075  and  _1076
REMARK  324  A    between atoms: _1085  and  _1086
REMARK  325  A    between atoms: _1086  and  _1087
REMARK  326  A    between atoms: _1086  and  _1089
REMARK  327  A    between atoms: _1089  and  _1090
REMARK  328  A    between atoms: _1090  and  _1091
REMARK  329  A    between atoms: _1091  and  _1092
REMARK  330  A    between atoms: _1092  and  _1093
REMARK  331  A    between atoms: _1107  and  _1108
REMARK  332  A    between atoms: _1108  and  _1109
REMARK  333  A    between atoms: _1108  and  _1111
REMARK  334  A    between atoms: _1111  and  _1112
REMARK  335  A    between atoms: _1112  and  _1113
REMARK  336  A    between atoms: _1124  and  _1125
REMARK  337  A    between atoms: _1125  and  _1126
REMARK  338  A    between atoms: _1125  and  _1128
REMARK  339  A    between atoms: _1128  and  _1129
REMARK  340  A    between atoms: _1136  and  _1137
REMARK  341  A    between atoms: _1137  and  _1138
REMARK  342  A    between atoms: _1137  and  _1140
REMARK  343  A    between atoms: _1140  and  _1141
REMARK  344  A    between atoms: _1141  and  _1142
REMARK  345  A    between atoms: _1142  and  _1143
REMARK  346  A    between atoms: _1160  and  _1161
REMARK  347  A    between atoms: _1161  and  _1162
REMARK  348  A    between atoms: _1161  and  _1164
REMARK  349  A    between atoms: _1164  and  _1165
REMARK  350  A    between atoms: _1164  and  _1166
REMARK  351  A    between atoms: _1174  and  _1175
REMARK  352  A    between atoms: _1175  and  _1176
REMARK  353  A    between atoms: _1175  and  _1178
REMARK  354  A    between atoms: _1178  and  _1179
REMARK  355  A    between atoms: _1179  and  _1180
REMARK  356  A    between atoms: _1179  and  _1181
REMARK  357  A    between atoms: _1193  and  _1194
REMARK  358  A    between atoms: _1194  and  _1195
REMARK  359  A    between atoms: _1194  and  _1197
REMARK  360  A    between atoms: _1197  and  _1198
REMARK  361  A    between atoms: _1197  and  _1199
REMARK  362  A    between atoms: _1207  and  _1208
REMARK  363  A    between atoms: _1208  and  _1209
REMARK  364  A    between atoms: _1208  and  _1211
REMARK  365  A    between atoms: _1211  and  _1212
REMARK  366  A    between atoms: _1211  and  _1213
REMARK  367  A    between atoms: _1212  and  _1214
REMARK  368  A    between atoms: _1226  and  _1227
REMARK  369  A    between atoms: _1227  and  _1228
REMARK  370  A    between atoms: _1227  and  _1230
REMARK  371  A    between atoms: _1230  and  _1231
REMARK  372  A    between atoms: _1230  and  _1232
REMARK  373  A    between atoms: _1242  and  _1243
REMARK  374  A    between atoms: _1243  and  _1244
REMARK  375  A    between atoms: _1243  and  _1246
REMARK  376  A    between atoms: _1246  and  _1247
REMARK  377  A    between atoms: _1254  and  _1255
REMARK  378  A    between atoms: _1255  and  _1256
REMARK  379  A    between atoms: _1255  and  _1258
REMARK  380  A    between atoms: _1258  and  _1259
REMARK  381  A    between atoms: _1258  and  _1260
REMARK  382  A    between atoms: _1268  and  _1269
REMARK  383  A    between atoms: _1269  and  _1270
REMARK  384  A    between atoms: _1275  and  _1276
REMARK  385  A    between atoms: _1276  and  _1277
REMARK  386  A    between atoms: _1276  and  _1279
REMARK  387  A    between atoms: _1279  and  _1280
REMARK  388  A    between atoms: _1279  and  _1281
REMARK  389  A    between atoms: _1280  and  _1282
REMARK  390  A    between atoms: _1294  and  _1295
REMARK  391  A    between atoms: _1295  and  _1296
REMARK  392  A    between atoms: _1301  and  _1302
REMARK  393  A    between atoms: _1302  and  _1303
REMARK  394  A    between atoms: _1302  and  _1305
REMARK  395  A    between atoms: _1305  and  _1306
REMARK  396  A    between atoms: _1306  and  _1307
REMARK  397  A    between atoms: _1307  and  _1308
REMARK  398  A    between atoms: _1318  and  _1319
REMARK  399  A    between atoms: _1319  and  _1320
REMARK  400  A    between atoms: _1319  and  _1322
REMARK  401  A    between atoms: _1322  and  _1323
REMARK  402  A    between atoms: _1322  and  _1324
REMARK  403  A    between atoms: _1332  and  _1333
REMARK  404  A    between atoms: _1333  and  _1334
REMARK  405  A    between atoms: _1333  and  _1336
REMARK  406  A    between atoms: _1336  and  _1337
REMARK  407  A    between atoms: _1337  and  _1338
REMARK  408  A    between atoms: _1338  and  _1339
REMARK  409  A    between atoms: _1339  and  _1340
REMARK  410  A    between atoms: _1354  and  _1355
REMARK  411  A    between atoms: _1355  and  _1356
REMARK  412  A    between atoms: _1355  and  _1358
REMARK  413  A    between atoms: _1364  and  _1365
REMARK  414  A    between atoms: _1365  and  _1366
REMARK  415  A    between atoms: _1365  and  _1368
REMARK  416  A    between atoms: _1368  and  _1369
REMARK  417  A    between atoms: _1376  and  _1377
REMARK  418  A    between atoms: _1377  and  _1378
REMARK  419  A    between atoms: _1377  and  _1380
REMARK  420  A    between atoms: _1380  and  _1381
REMARK  421  A    between atoms: _1381  and  _1382
REMARK  422  A    between atoms: _1381  and  _1383
REMARK  423  A    between atoms: _1395  and  _1396
REMARK  424  A    between atoms: _1396  and  _1399
REMARK  425  A    between atoms: _1399  and  _1400
REMARK  426  A    between atoms: _1399  and  _1401
REMARK  427  A    between atoms: _1400  and  _1402
REMARK  428  A    between atoms: _1422  and  _1425
REMARK  429  A    between atoms: _1424  and  _1428
REMARK  430  A    between atoms: _1425  and  _1427
REMARK  431  A    between atoms: _1443  and  _1444
REMARK  432  A    between atoms: _1443  and  _1446
REMARK  433  A    between atoms: _1446  and  _1447
REMARK  434  A    between atoms: _1457  and  _1458
REMARK  435  A    between atoms: _1458  and  _1459
REMARK  436  A    between atoms: _1458  and  _1461
REMARK  437  A    between atoms: _1461  and  _1462
REMARK  438  A    between atoms: _1462  and  _1463
REMARK  439  A    between atoms: _1462  and  _1464
REMARK  440  A    between atoms: _1476  and  _1477
REMARK  441  A    between atoms: _1477  and  _1478
REMARK  442  A    between atoms: _1483  and  _1484
REMARK  443  A    between atoms: _1484  and  _1485
REMARK  444  A    between atoms: _1484  and  _1487
REMARK  445  A    between atoms: _1487  and  _1488
REMARK  446  A    between atoms: _1487  and  _1489
REMARK  447  A    between atoms: _1497  and  _1498
REMARK  448  A    between atoms: _1498  and  _1499
REMARK  449  A    between atoms: _1498  and  _1501
REMARK  450  A    between atoms: _1501  and  _1502
REMARK  451  A    between atoms: _1501  and  _1503
REMARK  452  A    between atoms: _1502  and  _1504
REMARK  453  A    between atoms: _1516  and  _1517
REMARK  454  A    between atoms: _1517  and  _1518
REMARK  455  A    between atoms: _1517  and  _1520
REMARK  456  A    between atoms: _1526  and  _1527
REMARK  457  A    between atoms: _1527  and  _1528
REMARK  458  A    between atoms: _1527  and  _1530
REMARK  459  A    between atoms: _1530  and  _1531
REMARK  460  A    between atoms: _1531  and  _1532
REMARK  461  A    between atoms: _1532  and  _1533
REMARK  462  A    between atoms: _1533  and  _1534
REMARK  463  A    between atoms: _1548  and  _1549
REMARK  464  A    between atoms: _1549  and  _1550
REMARK  465  A    between atoms: _1549  and  _1552
REMARK  466  A    between atoms: _1552  and  _1553
REMARK  467  A    between atoms: _1559  and  _1560
REMARK  468  A    between atoms: _1560  and  _1561
REMARK  469  A    between atoms: _1566  and  _1567
REMARK  470  A    between atoms: _1567  and  _1568
REMARK  471  A    between atoms: _1567  and  _1570
REMARK  472  A    between atoms: _1570  and  _1571
REMARK  473  A    between atoms: _1570  and  _1572
REMARK  474  A    between atoms: _1580  and  _1581
REMARK  475  A    between atoms: _1581  and  _1582
REMARK  476  A    between atoms: _1581  and  _1584
REMARK  477  A    between atoms: _1584  and  _1585
REMARK  478  A    between atoms: _1585  and  _1586
REMARK  479  A    between atoms: _1586  and  _1587
REMARK  480  A    between atoms: _1587  and  _1588
REMARK  481  A    between atoms: _1602  and  _1603
REMARK  482  A    between atoms: _1603  and  _1604
REMARK  483  A    between atoms: _1603  and  _1606
REMARK  484  A    between atoms: _1612  and  _1613
REMARK  485  A    between atoms: _1613  and  _1614
REMARK  486  A    between atoms: _1613  and  _1616
REMARK  487  A    between atoms: _1616  and  _1617
REMARK  488  A    between atoms: _1632  and  _1633
REMARK  489  A    between atoms: _1633  and  _1634
REMARK  490  A    between atoms: _1633  and  _1636
REMARK  491  A    between atoms: _1636  and  _1637
REMARK  492  A    between atoms: _1637  and  _1638
REMARK  493  A    between atoms: _1638  and  _1639
REMARK  494  A    between atoms: _1649  and  _1650
REMARK  495  A    between atoms: _1650  and  _1651
REMARK  496  A    between atoms: _1650  and  _1653
REMARK  497  A    between atoms: _1653  and  _1654
REMARK  498  A    between atoms: _1654  and  _1655
REMARK  499  A    between atoms: _1664  and  _1665
REMARK  500  A    between atoms: _1665  and  _1666
REMARK  501  A    between atoms: _1665  and  _1668
REMARK  502  A    between atoms: _1674  and  _1675
REMARK  503  A    between atoms: _1675  and  _1676
REMARK  504  A    between atoms: _1675  and  _1678
REMARK  505  A    between atoms: _1678  and  _1679
REMARK  506  A    between atoms: _1679  and  _1680
REMARK  507  A    between atoms: _1679  and  _1681
REMARK  508  A    between atoms: _1693  and  _1694
REMARK  509  A    between atoms: _1694  and  _1695
REMARK  510  A    between atoms: _1694  and  _1697
REMARK  511  A    between atoms: _1697  and  _1698
REMARK  512  A    between atoms: _1698  and  _1699
REMARK  513  A    between atoms: _1710  and  _1711
REMARK  514  A    between atoms: _1711  and  _1712
REMARK  515  A    between atoms: _1711  and  _1714
REMARK  516  A    between atoms: _1720  and  _1721
REMARK  517  A    between atoms: _1721  and  _1722
REMARK  518  A    between atoms: _1727  and  _1728
REMARK  519  A    between atoms: _1728  and  _1729
REMARK  520  A    between atoms: _1728  and  _1731
REMARK  521  A    between atoms: _1737  and  _1738
REMARK  522  A    between atoms: _1738  and  _1739
REMARK  523  A    between atoms: _1738  and  _1741
REMARK  524  A    between atoms: _1741  and  _1742
REMARK  525  A    between atoms: _1749  and  _1750
REMARK  526  A    between atoms: _1750  and  _1751
REMARK  527  A    between atoms: _1750  and  _1753
REMARK  528  A    between atoms: _1753  and  _1754
REMARK  529  A    between atoms: _1753  and  _1755
REMARK  530  A    between atoms: _1754  and  _1756
REMARK  531  A    between atoms: _1768  and  _1769
REMARK  532  A    between atoms: _1769  and  _1772
REMARK  533  A    between atoms: _1772  and  _1773
REMARK  534  A    between atoms: _1791  and  _1793
REMARK  535  A    between atoms: _1792  and  _1794
REMARK  536  A    between atoms: _1814  and  _1815
REMARK  537  A    between atoms: _1814  and  _1817
REMARK  538  A    between atoms: _1817  and  _1818
REMARK  539  A    between atoms: _1817  and  _1819
REMARK  540  A    between atoms: _1818  and  _1820
REMARK  541  A    between atoms: _1833  and  _1834
REMARK  542  A    between atoms: _1834  and  _1835
REMARK  543  A    between atoms: _1840  and  _1841
REMARK  544  A    between atoms: _1841  and  _1842
REMARK  545  A    between atoms: _1841  and  _1844
REMARK  546  A    between atoms: _1844  and  _1845
REMARK  547  A    between atoms: _1845  and  _1846
REMARK  548  A    between atoms: _1857  and  _1858
REMARK  549  A    between atoms: _1858  and  _1859
REMARK  550  A    between atoms: _1858  and  _1861
REMARK  551  A    between atoms: _1861  and  _1862
REMARK  552  A    between atoms: _1877  and  _1878
REMARK  553  A    between atoms: _1878  and  _1879
REMARK  554  A    between atoms: _1884  and  _1885
REMARK  555  A    between atoms: _1885  and  _1886
REMARK  556  A    between atoms: _1885  and  _1888
REMARK  557  A    between atoms: _1888  and  _1889
REMARK  558  A    between atoms: _1888  and  _1890
REMARK  559  A    between atoms: _1900  and  _1901
REMARK  560  A    between atoms: _1901  and  _1902
REMARK  561  A    between atoms: _1907  and  _1908
REMARK  562  A    between atoms: _1908  and  _1909
REMARK  563  A    between atoms: _1908  and  _1911
REMARK  564  A    between atoms: _1911  and  _1912
REMARK  565  A    between atoms: _1927  and  _1928
REMARK  566  A    between atoms: _1928  and  _1929
REMARK  567  A    between atoms: _1928  and  _1931
REMARK  568  A    between atoms: _1931  and  _1932
REMARK  569  A    between atoms: _1937  and  _1938
REMARK  570  A    between atoms: _1948  and  _1949
REMARK  571  A    between atoms: _1949  and  _1950
REMARK  572  A    between atoms: _1949  and  _1952
REMARK  573  A    between atoms: _1952  and  _1953
REMARK  574  A    between atoms: _1959  and  _1960
REMARK  575  A    between atoms: _1960  and  _1961
REMARK  576  A    between atoms: _1960  and  _1963
REMARK  577  A    between atoms: _1969  and  _1970
REMARK  578  A    between atoms: _1970  and  _1971
REMARK  579  A    between atoms: _1970  and  _1973
REMARK  580  A    between atoms: _1973  and  _1974
REMARK  581  A    between atoms: _1979  and  _1980
REMARK  582  A    between atoms: _1990  and  _1991
REMARK  583  A    between atoms: _1991  and  _1992
REMARK  584  A    between atoms: _1991  and  _1994
REMARK  585  A    between atoms: _1994  and  _1995
REMARK  586  A    between atoms: _1995  and  _1996
REMARK  587  A    between atoms: _1995  and  _1997
REMARK  588  A    between atoms: _2009  and  _2010
REMARK  589  A    between atoms: _2010  and  _2011
REMARK  590  A    between atoms: _2010  and  _2013
REMARK  591  A    between atoms: _2013  and  _2014
REMARK  592  A    between atoms: _2013  and  _2015
REMARK  593  A    between atoms: _2025  and  _2026
REMARK  594  A    between atoms: _2026  and  _2027
REMARK  595  A    between atoms: _2026  and  _2029
REMARK  596  A    between atoms: _2035  and  _2036
REMARK  597  A    between atoms: _2036  and  _2037
REMARK  598  A    between atoms: _2036  and  _2039
REMARK  599  A    between atoms: _2039  and  _2040
REMARK  600  A    between atoms: _2040  and  _2041
REMARK  601  A    between atoms: _2050  and  _2051
REMARK  602  A    between atoms: _2051  and  _2052
REMARK  603  A    between atoms: _2051  and  _2054
REMARK  604  A    between atoms: _2054  and  _2055
REMARK  605  A    between atoms: _2055  and  _2056
REMARK  606  A    between atoms: _2056  and  _2057
REMARK  607  A    between atoms: _2057  and  _2058
REMARK  608  A    between atoms: _2072  and  _2073
REMARK  609  A    between atoms: _2073  and  _2074
REMARK  610  A    between atoms: _2073  and  _2076
REMARK  611  A    between atoms: _2076  and  _2077
REMARK  612  A    between atoms: _2076  and  _2078
REMARK  613  A    between atoms: _2088  and  _2089
REMARK  614  A    between atoms: _2089  and  _2090
REMARK  615  A    between atoms: _2089  and  _2092
REMARK  616  A    between atoms: _2092  and  _2093
REMARK  617  A    between atoms: _2092  and  _2094
REMARK  618  A    between atoms: _2102  and  _2103
REMARK  619  A    between atoms: _2103  and  _2104
REMARK  620  A    between atoms: _2103  and  _2106
REMARK  621  A    between atoms: _2106  and  _2107
REMARK  622  A    between atoms: _2106  and  _2108
REMARK  623  A    between atoms: _2118  and  _2119
REMARK  624  A    between atoms: _2119  and  _2120
REMARK  625  A    between atoms: _2119  and  _2122
REMARK  626  A    between atoms: _2122  and  _2123
REMARK  627  A    between atoms: _2122  and  _2124
REMARK  628  A    between atoms: _2123  and  _2125
REMARK  629  A    between atoms: _2137  and  _2138
REMARK  630  A    between atoms: _2138  and  _2139
REMARK  631  A    between atoms: _2138  and  _2141
REMARK  632  A    between atoms: _2141  and  _2142
REMARK  633  A    between atoms: _2141  and  _2143
REMARK  634  A    between atoms: _2151  and  _2152
REMARK  635  A    between atoms: _2152  and  _2153
REMARK  636  A    between atoms: _2152  and  _2155
REMARK  637  A    between atoms: _2155  and  _2156
REMARK  638  A    between atoms: _2156  and  _2157
REMARK  639  A    between atoms: _2157  and  _2158
REMARK  640  A    between atoms: _2158  and  _2159
REMARK  641  A    between atoms: _2173  and  _2174
REMARK  642  A    between atoms: _2174  and  _2175
REMARK  643  A    between atoms: _2174  and  _2177
REMARK  644  A    between atoms: _2177  and  _2178
REMARK  645  A    between atoms: _2190  and  _2191
REMARK  646  A    between atoms: _2191  and  _2192
REMARK  647  A    between atoms: _2191  and  _2194
REMARK  648  A    between atoms: _2194  and  _2195
REMARK  649  A    between atoms: _2204  and  _2205
REMARK  650  A    between atoms: _2205  and  _2206
REMARK  651  A    between atoms: _2205  and  _2208
REMARK  652  A    between atoms: _2208  and  _2209
REMARK  653  A    between atoms: _2216  and  _2217
REMARK  654  A    between atoms: _2217  and  _2218
REMARK  655  A    between atoms: _2217  and  _2220
REMARK  656  A    between atoms: _2220  and  _2221
REMARK  657  A    between atoms: _2228  and  _2229
REMARK  658  A    between atoms: _2229  and  _2230
REMARK  659  A    between atoms: _2229  and  _2232
REMARK  660  A    between atoms: _2232  and  _2233
REMARK  661  A    between atoms: _2233  and  _2234
REMARK  662  A    between atoms: _2243  and  _2244
REMARK  663  A    between atoms: _2244  and  _2245
REMARK  664  A    between atoms: _2244  and  _2247
REMARK  665  A    between atoms: _2247  and  _2248
REMARK  666  A    between atoms: _2248  and  _2249
REMARK  667  A    between atoms: _2260  and  _2261
REMARK  668  A    between atoms: _2261  and  _2262
REMARK  669  A    between atoms: _2261  and  _2264
REMARK  670  A    between atoms: _2264  and  _2265
REMARK  671  A    between atoms: _2270  and  _2271
REMARK  672  A    between atoms: _2281  and  _2282
REMARK  673  A    between atoms: _2282  and  _2283
REMARK  674  A    between atoms: _2282  and  _2285
REMARK  675  A    between atoms: _2291  and  _2292
REMARK  676  A    between atoms: _2292  and  _2293
REMARK  677  A    between atoms: _2292  and  _2295
REMARK  678  A    between atoms: _2295  and  _2296
REMARK  679  A    between atoms: _2315  and  _2316
REMARK  680  A    between atoms: _2316  and  _2317
REMARK  681  A    between atoms: _2316  and  _2319
REMARK  682  A    between atoms: _2319  and  _2320
REMARK  683  A    between atoms: _2320  and  _2321
REMARK  684  A    between atoms: _2330  and  _2331
REMARK  685  A    between atoms: _2331  and  _2332
REMARK  686  A    between atoms: _2331  and  _2334
REMARK  687  A    between atoms: _2334  and  _2335
REMARK  688  A    between atoms: _2341  and  _2342
REMARK  689  A    between atoms: _2342  and  _2343
REMARK  690  A    between atoms: _2342  and  _2345
REMARK  691  A    between atoms: _2345  and  _2346
REMARK  692  A    between atoms: _2352  and  _2353
REMARK  693  A    between atoms: _2353  and  _2354
REMARK  694  A    between atoms: _2353  and  _2356
REMARK  695  A    between atoms: _2362  and  _2363
REMARK  696  A    between atoms: _2363  and  _2364
REMARK  697  A    between atoms: _2369  and  _2370
REMARK  698  A    between atoms: _2370  and  _2371
REMARK  699  A    between atoms: _2376  and  _2377
REMARK  700  A    between atoms: _2377  and  _2378
REMARK  701  A    between atoms: _2377  and  _2380
REMARK  702  A    between atoms: _2380  and  _2381
REMARK  703  A    between atoms: _2387  and  _2388
REMARK  704  A    between atoms: _2388  and  _2389
REMARK  705  A    between atoms: _2388  and  _2391
REMARK  706  A    between atoms: _2391  and  _2392
REMARK  707  A    between atoms: _2407  and  _2408
REMARK  708  A    between atoms: _2408  and  _2409
REMARK  709  A    between atoms: _2408  and  _2411
REMARK  710  A    between atoms: _2411  and  _2412
REMARK  711  A    between atoms: _2411  and  _2413
REMARK  712  A    between atoms: _2421  and  _2422
REMARK  713  A    between atoms: _2422  and  _2423
REMARK  714  A    between atoms: _2422  and  _2425
REMARK  715  A    between atoms: _2425  and  _2426
REMARK  716  A    between atoms: _2425  and  _2427
REMARK  717  A    between atoms: _2437  and  _2438
REMARK  718  A    between atoms: _2438  and  _2439
REMARK  719  A    between atoms: _2438  and  _2441
REMARK  720  A    between atoms: _2441  and  _2442
REMARK  721  A    between atoms: _2442  and  _2443
REMARK  722  A    between atoms: _2443  and  _2444
REMARK  723  A    between atoms: _2461  and  _2462
REMARK  724  A    between atoms: _2462  and  _2463
REMARK  725  A    between atoms: _2462  and  _2465
REMARK  726  A    between atoms: _2465  and  _2466
REMARK  727  A    between atoms: _2465  and  _2467
REMARK  728  A    between atoms: _2475  and  _2476
REMARK  729  A    between atoms: _2476  and  _2477
REMARK  730  A    between atoms: _2476  and  _2479
REMARK  731  A    between atoms: _2479  and  _2480
REMARK  732  A    between atoms: _2487  and  _2488
REMARK  733  A    between atoms: _2488  and  _2489
REMARK  734  A    between atoms: _2488  and  _2491
REMARK  735  A    between atoms: _2491  and  _2492
REMARK  736  A    between atoms: _2491  and  _2493
REMARK  737  A    between atoms: _2501  and  _2502
REMARK  738  A    between atoms: _2502  and  _2503
REMARK  739  A    between atoms: _2508  and  _2509
REMARK  740  A    between atoms: _2509  and  _2510
REMARK  741  A    between atoms: _2509  and  _2512
REMARK  742  A    between atoms: _2512  and  _2513
REMARK  743  A    between atoms: _2513  and  _2514
REMARK  744  A    between atoms: _2524  and  _2525
REMARK  745  A    between atoms: _2537  and  _2538
REMARK  746  A    between atoms: _2538  and  _2539
REMARK  747  A    between atoms: _2538  and  _2541
REMARK  748  A    between atoms: _2541  and  _2542
REMARK  749  A    between atoms: _2542  and  _2543
REMARK  750  A    between atoms: _2543  and  _2544
REMARK  751  A    between atoms: _2554  and  _2555
REMARK  752  A    between atoms: _2555  and  _2556
REMARK  753  A    between atoms: _2561  and  _2562
REMARK  754  A    between atoms: _2562  and  _2563
REMARK  755  A    between atoms: _2562  and  _2565
REMARK  756  A    between atoms: _2565  and  _2566
REMARK  757  A    between atoms: _2566  and  _2567
REMARK  758  A    between atoms: _2567  and  _2568
REMARK  759  A    between atoms: _2585  and  _2586
REMARK  760  A    between atoms: _2586  and  _2587
REMARK  761  A    between atoms: _2592  and  _2593
REMARK  762  A    between atoms: _2593  and  _2594
REMARK  763  A    between atoms: _2593  and  _2596
REMARK  764  A    between atoms: _2596  and  _2597
REMARK  765  A    between atoms: _2596  and  _2598
REMARK  766  A    between atoms: _2606  and  _2607
REMARK  767  A    between atoms: _2607  and  _2608
REMARK  768  A    between atoms: _2607  and  _2610
REMARK  769  A    between atoms: _2610  and  _2611
REMARK  770  A    between atoms: _2611  and  _2612
REMARK  771  A    between atoms: _2612  and  _2613
REMARK  772  A    between atoms: _2613  and  _2614
REMARK  773  A    between atoms: _2628  and  _2629
REMARK  774  A    between atoms: _2629  and  _2630
REMARK  775  A    between atoms: _2629  and  _2632
REMARK  776  A    between atoms: _2632  and  _2633
REMARK  777  A    between atoms: _2632  and  _2634
REMARK  778  A    between atoms: _2644  and  _2645
REMARK  779  A    between atoms: _2645  and  _2646
REMARK  780  A    between atoms: _2645  and  _2648
REMARK  781  A    between atoms: _2648  and  _2649
REMARK  782  A    between atoms: _2648  and  _2650
REMARK  783  A    between atoms: _2649  and  _2651
REMARK  784  A    between atoms: _2663  and  _2664
REMARK  785  A    between atoms: _2664  and  _2665
REMARK  786  A    between atoms: _2664  and  _2667
REMARK  787  A    between atoms: _2667  and  _2668
REMARK  788  A    between atoms: _2668  and  _2669
REMARK  789  A    between atoms: _2668  and  _2670
REMARK  790  A    between atoms: _2682  and  _2683
REMARK  791  A    between atoms: _2683  and  _2684
REMARK  792  A    between atoms: _2683  and  _2686
REMARK  793  A    between atoms: _2686  and  _2687
REMARK  794  A    between atoms: _2699  and  _2700
REMARK  795  A    between atoms: _2700  and  _2701
REMARK  796  A    between atoms: _2700  and  _2703
REMARK  797  A    between atoms: _2703  and  _2704
REMARK  798  A    between atoms: _2704  and  _2705
REMARK  799  A    between atoms: _2704  and  _2706
REMARK  800  A    between atoms: _2718  and  _2719
REMARK  801  A    between atoms: _2719  and  _2720
REMARK  802  A    between atoms: _2719  and  _2722
REMARK  803  A    between atoms: _2722  and  _2723
REMARK  804  A    between atoms: _2723  and  _2724
REMARK  805  A    between atoms: _2724  and  _2725
REMARK  806  A    between atoms: _2725  and  _2726
REMARK  807  A    between atoms: _2740  and  _2741
REMARK  808  A    between atoms: _2741  and  _2742
REMARK  809  A    between atoms: _2741  and  _2744
REMARK  810  A    between atoms: _2744  and  _2745
REMARK  811  A    between atoms: _2745  and  _2746
REMARK  812  A    between atoms: _2755  and  _2756
REMARK  813  A    between atoms: _2756  and  _2757
REMARK  814  A    between atoms: _2756  and  _2759
REMARK  815  A    between atoms: _2759  and  _2760
REMARK  816  A    between atoms: _2767  and  _2768
REMARK  817  A    between atoms: _2768  and  _2769
REMARK  818  A    between atoms: _2768  and  _2771
REMARK  819  A    between atoms: _2771  and  _2772
REMARK  820  A    between atoms: _2772  and  _2773
REMARK  821  A    between atoms: _2784  and  _2785
REMARK  822  A    between atoms: _2785  and  _2786
REMARK  823  A    between atoms: _2785  and  _2788
REMARK  824  A    between atoms: _2788  and  _2789
REMARK  825  A    between atoms: _2788  and  _2790
REMARK  826  A    between atoms: _2798  and  _2799
REMARK  827  A    between atoms: _2799  and  _2800
REMARK  828  A    between atoms: _2799  and  _2802
REMARK  829  A    between atoms: _2802  and  _2803
REMARK  830  A    between atoms: _2803  and  _2804
REMARK  831  A    between atoms: _2813  and  _2814
REMARK  832  A    between atoms: _2814  and  _2815
REMARK  833  A    between atoms: _2814  and  _2817
REMARK  834  A    between atoms: _2817  and  _2818
REMARK  835  A    between atoms: _2823  and  _2824
REMARK  836  A    between atoms: _2834  and  _2835
REMARK  837  A    between atoms: _2835  and  _2838
REMARK  838  A    between atoms: _2838  and  _2839
REMARK  839  A    between atoms: _2839  and  _2840
REMARK  840  A    between atoms: _2839  and  _2841
REMARK  841  A    between atoms: _2884  and  _2885
REMARK  842  A    between atoms: _2884  and  _2887
REMARK  843  A    between atoms: _2887  and  _2888
REMARK  844  A    between atoms: _2888  and  _2889
REMARK  845  A    between atoms: _2899  and  _2900
REMARK  846  A    between atoms: _2900  and  _2901
REMARK  847  A    between atoms: _2900  and  _2903
REMARK  848  A    between atoms: _2903  and  _2904
REMARK  849  A    between atoms: _2904  and  _2905
REMARK  850  A    between atoms: _2905  and  _2906
REMARK  851  A    between atoms: _2923  and  _2924
REMARK  852  A    between atoms: _2924  and  _2925
REMARK  853  A    between atoms: _2924  and  _2927
REMARK  854  A    between atoms: _2927  and  _2928
REMARK  855  A    between atoms: _2928  and  _2929
REMARK  856  A    between atoms: _2929  and  _2930
REMARK  857  A    between atoms: _2947  and  _2948
REMARK  858  A    between atoms: _2948  and  _2949
REMARK  859  A    between atoms: _2948  and  _2951
REMARK  860  A    between atoms: _2951  and  _2952
REMARK  861  A    between atoms: _2951  and  _2953
REMARK  862  A    between atoms: _2952  and  _2954
REMARK  863  A    between atoms: _2966  and  _2967
REMARK  864  A    between atoms: _2967  and  _2968
REMARK  865  A    between atoms: _2967  and  _2970
REMARK  866  A    between atoms: _2970  and  _2971
REMARK  867  A    between atoms: _2971  and  _2972
REMARK  868  A    between atoms: _2972  and  _2973
REMARK  869  A    between atoms: _2973  and  _2974
REMARK  870  A    between atoms: _2988  and  _2989
REMARK  871  A    between atoms: _2989  and  _2990
REMARK  872  A    between atoms: _2989  and  _2992
REMARK  873  A    between atoms: _2992  and  _2993
REMARK  874  A    between atoms: _2993  and  _2994
REMARK  875  A    between atoms: _3003  and  _3004
REMARK  876  A    between atoms: _3004  and  _3005
REMARK  877  A    between atoms: _3004  and  _3007
REMARK  878  A    between atoms: _3007  and  _3008
REMARK  879  A    between atoms: _3007  and  _3009
REMARK  880  A    between atoms: _3008  and  _3010
REMARK  881  A    between atoms: _3022  and  _3023
REMARK  882  A    between atoms: _3023  and  _3024
REMARK  883  A    between atoms: _3023  and  _3026
REMARK  884  A    between atoms: _3026  and  _3027
REMARK  885  A    between atoms: _3026  and  _3028
REMARK  886  A    between atoms: _3038  and  _3039
REMARK  887  A    between atoms: _3039  and  _3040
REMARK  888  A    between atoms: _3039  and  _3042
REMARK  889  A    between atoms: _3042  and  _3043
REMARK  890  A    between atoms: _3043  and  _3044
REMARK  891  A    between atoms: _3044  and  _3045
REMARK  892  A    between atoms: _3045  and  _3046
REMARK  893  A    between atoms: _3060  and  _3061
REMARK  894  A    between atoms: _3061  and  _3062
REMARK  895  A    between atoms: _3061  and  _3064
REMARK  896  A    between atoms: _3064  and  _3065
REMARK  897  A    between atoms: _3065  and  _3066
REMARK  898  A    between atoms: _3066  and  _3067
REMARK  899  A    between atoms: _3067  and  _3068
REMARK  900  A    between atoms: _3082  and  _3083
REMARK  901  A    between atoms: _3083  and  _3084
REMARK  902  A    between atoms: _3083  and  _3086
REMARK  903  A    between atoms: _3086  and  _3087
REMARK  904  A    between atoms: _3099  and  _3100
REMARK  905  A    between atoms: _3100  and  _3101
REMARK  906  A    between atoms: _3100  and  _3103
REMARK  907  A    between atoms: _3103  and  _3104
REMARK  908  A    between atoms: _3110  and  _3111
REMARK  909  A    between atoms: _3111  and  _3112
REMARK  910  A    between atoms: _3111  and  _3114
REMARK  911  A    between atoms: _3114  and  _3115
REMARK  912  A    between atoms: _3115  and  _3116
REMARK  913  A    between atoms: _3127  and  _3128
REMARK  914  A    between atoms: _3128  and  _3129
REMARK  915  A    between atoms: _3128  and  _3131
REMARK  916  A    between atoms: _3131  and  _3132
REMARK  917  A    between atoms: _3147  and  _3148
REMARK  918  A    between atoms: _3148  and  _3149
REMARK  919  A    between atoms: _3148  and  _3151
REMARK  920  A    between atoms: _3151  and  _3152
REMARK  921  A    between atoms: _3151  and  _3153
REMARK  922  A    between atoms: _3152  and  _3154
REMARK  923  A    between atoms: _3166  and  _3167
REMARK  924  A    between atoms: _3167  and  _3168
REMARK  925  A    between atoms: _3173  and  _3174
REMARK  926  A    between atoms: _3174  and  _3175
REMARK  927  A    between atoms: _3174  and  _3177
REMARK  928  A    between atoms: _3177  and  _3178
REMARK  929  A    between atoms: _3183  and  _3184
REMARK  930  A    between atoms: _3195  and  _3196
REMARK  931  A    between atoms: _3208  and  _3209
REMARK  932  A    between atoms: _3209  and  _3210
REMARK  933  A    between atoms: _3209  and  _3212
REMARK  934  A    between atoms: _3212  and  _3213
REMARK  935  A    between atoms: _3212  and  _3214
REMARK  936  A    between atoms: _3213  and  _3215
REMARK  937  A    between atoms: _3227  and  _3228
REMARK  938  A    between atoms: _3228  and  _3229
REMARK  939  A    between atoms: _3228  and  _3231
REMARK  940  A    between atoms: _3231  and  _3232
REMARK  941  A    between atoms: _3231  and  _3233
REMARK  942  A    between atoms: _3241  and  _3242
REMARK  943  A    between atoms: _3242  and  _3243
REMARK  944  A    between atoms: _3242  and  _3245
REMARK  945  A    between atoms: _3245  and  _3246
REMARK  946  A    between atoms: _3246  and  _3247
REMARK  947  A    between atoms: _3246  and  _3248
REMARK  948  A    between atoms: _3260  and  _3261
REMARK  949  A    between atoms: _3261  and  _3262
REMARK  950  A    between atoms: _3261  and  _3264
REMARK  951  A    between atoms: _3264  and  _3265
REMARK  952  A    between atoms: _3280  and  _3281
REMARK  953  A    between atoms: _3281  and  _3282
REMARK  954  A    between atoms: _3281  and  _3284
REMARK  955  A    between atoms: _3284  and  _3285
REMARK  956  A    between atoms: _3284  and  _3286
REMARK  957  A    between atoms: _3296  and  _3297
REMARK  958  A    between atoms: _3297  and  _3298
REMARK  959  A    between atoms: _3297  and  _3300
REMARK  960  A    between atoms: _3300  and  _3301
REMARK  961  A    between atoms: _3301  and  _3302
REMARK                            x       y       z     vdW  Elec       q    Type
REMARK                         _______ _______ _______ _____ _____    ______ ____
ROOT
ATOM      1  C   UNL     1       7.705  40.668  42.500  0.00  0.00    +0.000 C 
ENDROOT
TORSDOF 0
REMARK  Name = /Users/mlugowska/PhD/ML_residence_time_prediction/protein_files/5J20_protein.pdb
REMARK  961 active torsions:
REMARK  status: ('A' for Active; 'I' for Inactive)
REMARK    1  A    between atoms: _2  and  _3
REMARK    2  A    between atoms: _2  and  _5
REMARK    3  A    between atoms: _10  and  _11
REMARK    4  A    between atoms: _11  and  _12
REMARK    5  A    between atoms: _11  and  _14
REMARK    6  A    between atoms: _14  and  _15
REMARK    7  A    between atoms: _14  and  _16
REMARK    8  A    between atoms: _26  and  _27
REMARK    9  A    between atoms: _27  and  _28
REMARK   10  A    between atoms: _27  and  _30
REMARK   11  A    between atoms: _30  and  _31
REMARK   12  A    between atoms: _31  and  _32
REMARK   13  A    between atoms: _41  and  _42
REMARK   14  A    between atoms: _42  and  _43
REMARK   15  A    between atoms: _42  and  _45
REMARK   16  A    between atoms: _45  and  _46
REMARK   17  A    between atoms: _45  and  _47
REMARK   18  A    between atoms: _55  and  _56
REMARK   19  A    between atoms: _56  and  _57
REMARK   20  A    between atoms: _56  and  _59
REMARK   21  A    between atoms: _59  and  _60
REMARK   22  A    between atoms: _75  and  _76
REMARK   23  A    between atoms: _76  and  _77
REMARK   24  A    between atoms: _76  and  _79
REMARK   25  A    between atoms: _85  and  _86
REMARK   26  A    between atoms: _86  and  _87
REMARK   27  A    between atoms: _86  and  _89
REMARK   28  A    between atoms: _89  and  _90
REMARK   29  A    between atoms: _105  and  _106
REMARK   30  A    between atoms: _106  and  _107
REMARK   31  A    between atoms: _106  and  _109
REMARK   32  A    between atoms: _109  and  _110
REMARK   33  A    between atoms: _110  and  _111
REMARK   34  A    between atoms: _122  and  _123
REMARK   35  A    between atoms: _123  and  _124
REMARK   36  A    between atoms: _123  and  _126
REMARK   37  A    between atoms: _132  and  _133
REMARK   38  A    between atoms: _133  and  _134
REMARK   39  A    between atoms: _133  and  _136
REMARK   40  A    between atoms: _136  and  _137
REMARK   41  A    between atoms: _137  and  _138
REMARK   42  A    between atoms: _147  and  _148
REMARK   43  A    between atoms: _148  and  _149
REMARK   44  A    between atoms: _148  and  _151
REMARK   45  A    between atoms: _151  and  _152
REMARK   46  A    between atoms: _151  and  _153
REMARK   47  A    between atoms: _152  and  _154
REMARK   48  A    between atoms: _166  and  _167
REMARK   49  A    between atoms: _167  and  _168
REMARK   50  A    between atoms: _167  and  _170
REMARK   51  A    between atoms: _176  and  _177
REMARK   52  A    between atoms: _177  and  _178
REMARK   53  A    between atoms: _177  and  _180
REMARK   54  A    between atoms: _180  and  _181
REMARK   55  A    between atoms: _181  and  _182
REMARK   56  A    between atoms: _193  and  _194
REMARK   57  A    between atoms: _194  and  _195
REMARK   58  A    between atoms: _194  and  _197
REMARK   59  A    between atoms: _197  and  _198
REMARK   60  A    between atoms: _198  and  _199
REMARK   61  A    between atoms: _198  and  _200
REMARK   62  A    between atoms: _212  and  _213
REMARK   63  A    between atoms: _213  and  _214
REMARK   64  A    between atoms: _213  and  _216
REMARK   65  A    between atoms: _216  and  _217
REMARK   66  A    between atoms: _217  and  _218
REMARK   67  A    between atoms: _218  and  _219
REMARK   68  A    between atoms: _229  and  _230
REMARK   69  A    between atoms: _230  and  _231
REMARK   70  A    between atoms: _230  and  _233
REMARK   71  A    between atoms: _233  and  _234
REMARK   72  A    between atoms: _240  and  _241
REMARK   73  A    between atoms: _241  and  _242
REMARK   74  A    between atoms: _241  and  _244
REMARK   75  A    between atoms: _244  and  _245
REMARK   76  A    between atoms: _245  and  _246
REMARK   77  A    between atoms: _245  and  _247
REMARK   78  A    between atoms: _259  and  _260
REMARK   79  A    between atoms: _260  and  _261
REMARK   80  A    between atoms: _260  and  _263
REMARK   81  A    between atoms: _263  and  _264
REMARK   82  A    between atoms: _263  and  _265
REMARK   83  A    between atoms: _264  and  _266
REMARK   84  A    between atoms: _278  and  _279
REMARK   85  A    between atoms: _279  and  _280
REMARK   86  A    between atoms: _279  and  _282
REMARK   87  A    between atoms: _282  and  _283
REMARK   88  A    between atoms: _282  and  _284
REMARK   89  A    between atoms: _283  and  _285
REMARK   90  A    between atoms: _297  and  _298
REMARK   91  A    between atoms: _298  and  _299
REMARK   92  A    between atoms: _298  and  _301
REMARK   93  A    between atoms: _301  and  _302
REMARK   94  A    between atoms: _311  and  _312
REMARK   95  A    between atoms: _312  and  _313
REMARK   96  A    between atoms: _312  and  _315
REMARK   97  A    between atoms: _315  and  _316
REMARK   98  A    between atoms: _315  and  _317
REMARK   99  A    between atoms: _325  and  _326
REMARK  100  A    between atoms: _326  and  _327
REMARK  101  A    between atoms: _326  and  _329
REMARK  102  A    between atoms: _329  and  _330
REMARK  103  A    between atoms: _345  and  _346
REMARK  104  A    between atoms: _346  and  _347
REMARK  105  A    between atoms: _346  and  _349
REMARK  106  A    between atoms: _349  and  _350
REMARK  107  A    between atoms: _355  and  _356
REMARK  108  A    between atoms: _366  and  _367
REMARK  109  A    between atoms: _367  and  _368
REMARK  110  A    between atoms: _367  and  _370
REMARK  111  A    between atoms: _370  and  _371
REMARK  112  A    between atoms: _377  and  _378
REMARK  113  A    between atoms: _378  and  _379
REMARK  114  A    between atoms: _378  and  _381
REMARK  115  A    between atoms: _381  and  _382
REMARK  116  A    between atoms: _391  and  _392
REMARK  117  A    between atoms: _392  and  _393
REMARK  118  A    between atoms: _392  and  _395
REMARK  119  A    between atoms: _395  and  _396
REMARK  120  A    between atoms: _396  and  _397
REMARK  121  A    between atoms: _397  and  _398
REMARK  122  A    between atoms: _398  and  _399
REMARK  123  A    between atoms: _413  and  _414
REMARK  124  A    between atoms: _414  and  _415
REMARK  125  A    between atoms: _414  and  _417
REMARK  126  A    between atoms: _417  and  _418
REMARK  127  A    between atoms: _418  and  _419
REMARK  128  A    between atoms: _428  and  _429
REMARK  129  A    between atoms: _429  and  _430
REMARK  130  A    between atoms: _429  and  _432
REMARK  131  A    between atoms: _432  and  _433
REMARK  132  A    between atoms: _432  and  _434
REMARK  133  A    between atoms: _433  and  _435
REMARK  134  A    between atoms: _447  and  _448
REMARK  135  A    between atoms: _448  and  _449
REMARK  136  A    between atoms: _448  and  _451
REMARK  137  A    between atoms: _451  and  _452
REMARK  138  A    between atoms: _467  and  _468
REMARK  139  A    between atoms: _468  and  _469
REMARK  140  A    between atoms: _468  and  _471
REMARK  141  A    between atoms: _471  and  _472
REMARK  142  A    between atoms: _472  and  _473
REMARK  143  A    between atoms: _472  and  _474
REMARK  144  A    between atoms: _486  and  _487
REMARK  145  A    between atoms: _487  and  _488
REMARK  146  A    between atoms: _487  and  _490
REMARK  147  A    between atoms: _490  and  _491
REMARK  148  A    between atoms: _491  and  _492
REMARK  149  A    between atoms: _492  and  _493
REMARK  150  A    between atoms: _510  and  _511
REMARK  151  A    between atoms: _511  and  _512
REMARK  152  A    between atoms: _511  and  _514
REMARK  153  A    between atoms: _514  and  _515
REMARK  154  A    between atoms: _515  and  _516
REMARK  155  A    between atoms: _525  and  _526
REMARK  156  A    between atoms: _526  and  _527
REMARK  157  A    between atoms: _526  and  _529
REMARK  158  A    between atoms: _529  and  _530
REMARK  159  A    between atoms: _530  and  _531
REMARK  160  A    between atoms: _530  and  _532
REMARK  161  A    between atoms: _544  and  _545
REMARK  162  A    between atoms: _545  and  _546
REMARK  163  A    between atoms: _545  and  _548
REMARK  164  A    between atoms: _548  and  _549
REMARK  165  A    between atoms: _548  and  _550
REMARK  166  A    between atoms: _549  and  _551
REMARK  167  A    between atoms: _563  and  _564
REMARK  168  A    between atoms: _564  and  _565
REMARK  169  A    between atoms: _564  and  _567
REMARK  170  A    between atoms: _567  and  _568
REMARK  171  A    between atoms: _574  and  _575
REMARK  172  A    between atoms: _575  and  _576
REMARK  173  A    between atoms: _575  and  _578
REMARK  174  A    between atoms: _578  and  _579
REMARK  175  A    between atoms: _588  and  _589
REMARK  176  A    between atoms: _589  and  _590
REMARK  177  A    between atoms: _589  and  _592
REMARK  178  A    between atoms: _592  and  _593
REMARK  179  A    between atoms: _599  and  _600
REMARK  180  A    between atoms: _600  and  _601
REMARK  181  A    between atoms: _600  and  _603
REMARK  182  A    between atoms: _603  and  _604
REMARK  183  A    between atoms: _610  and  _611
REMARK  184  A    between atoms: _611  and  _612
REMARK  185  A    between atoms: _611  and  _614
REMARK  186  A    between atoms: _614  and  _615
REMARK  187  A    between atoms: _622  and  _623
REMARK  188  A    between atoms: _623  and  _624
REMARK  189  A    between atoms: _623  and  _626
REMARK  190  A    between atoms: _632  and  _633
REMARK  191  A    between atoms: _633  and  _634
REMARK  192  A    between atoms: _633  and  _636
REMARK  193  A    between atoms: _636  and  _637
REMARK  194  A    between atoms: _637  and  _638
REMARK  195  A    between atoms: _637  and  _639
REMARK  196  A    between atoms: _651  and  _652
REMARK  197  A    between atoms: _652  and  _653
REMARK  198  A    between atoms: _652  and  _655
REMARK  199  A    between atoms: _655  and  _656
REMARK  200  A    between atoms: _663  and  _664
REMARK  201  A    between atoms: _664  and  _665
REMARK  202  A    between atoms: _664  and  _667
REMARK  203  A    between atoms: _667  and  _668
REMARK  204  A    between atoms: _668  and  _669
REMARK  205  A    between atoms: _669  and  _670
REMARK  206  A    between atoms: _670  and  _671
REMARK  207  A    between atoms: _685  and  _686
REMARK  208  A    between atoms: _686  and  _687
REMARK  209  A    between atoms: _686  and  _689
REMARK  210  A    between atoms: _689  and  _690
REMARK  211  A    between atoms: _689  and  _691
REMARK  212  A    between atoms: _690  and  _692
REMARK  213  A    between atoms: _704  and  _705
REMARK  214  A    between atoms: _705  and  _706
REMARK  215  A    between atoms: _705  and  _708
REMARK  216  A    between atoms: _708  and  _709
REMARK  217  A    between atoms: _709  and  _710
REMARK  218  A    between atoms: _710  and  _711
REMARK  219  A    between atoms: _728  and  _729
REMARK  220  A    between atoms: _729  and  _730
REMARK  221  A    between atoms: _729  and  _732
REMARK  222  A    between atoms: _732  and  _733
REMARK  223  A    between atoms: _738  and  _739
REMARK  224  A    between atoms: _749  and  _750
REMARK  225  A    between atoms: _750  and  _751
REMARK  226  A    between atoms: _750  and  _753
REMARK  227  A    between atoms: _753  and  _754
REMARK  228  A    between atoms: _754  and  _755
REMARK  229  A    between atoms: _764  and  _765
REMARK  230  A    between atoms: _765  and  _766
REMARK  231  A    between atoms: _765  and  _768
REMARK  232  A    between atoms: _772  and  _773
REMARK  233  A    between atoms: _773  and  _774
REMARK  234  A    between atoms: _773  and  _776
REMARK  235  A    between atoms: _776  and  _777
REMARK  236  A    between atoms: _777  and  _778
REMARK  237  A    between atoms: _777  and  _779
REMARK  238  A    between atoms: _791  and  _792
REMARK  239  A    between atoms: _792  and  _793
REMARK  240  A    between atoms: _792  and  _795
REMARK  241  A    between atoms: _795  and  _796
REMARK  242  A    between atoms: _795  and  _797
REMARK  243  A    between atoms: _805  and  _806
REMARK  244  A    between atoms: _806  and  _807
REMARK  245  A    between atoms: _806  and  _809
REMARK  246  A    between atoms: _809  and  _810
REMARK  247  A    between atoms: _818  and  _819
REMARK  248  A    between atoms: _831  and  _832
REMARK  249  A    between atoms: _832  and  _833
REMARK  250  A    between atoms: _832  and  _835
REMARK  251  A    between atoms: _835  and  _836
REMARK  252  A    between atoms: _842  and  _843
REMARK  253  A    between atoms: _843  and  _844
REMARK  254  A    between atoms: _843  and  _846
REMARK  255  A    between atoms: _846  and  _847
REMARK  256  A    between atoms: _847  and  _848
REMARK  257  A    between atoms: _848  and  _849
REMARK  258  A    between atoms: _849  and  _850
REMARK  259  A    between atoms: _864  and  _865
REMARK  260  A    between atoms: _865  and  _866
REMARK  261  A    between atoms: _865  and  _868
REMARK  262  A    between atoms: _868  and  _869
REMARK  263  A    between atoms: _869  and  _870
REMARK  264  A    between atoms: _869  and  _871
REMARK  265  A    between atoms: _883  and  _884
REMARK  266  A    between atoms: _884  and  _885
REMARK  267  A    between atoms: _884  and  _887
REMARK  268  A    between atoms: _887  and  _888
REMARK  269  A    between atoms: _895  and  _896
REMARK  270  A    between atoms: _896  and  _897
REMARK  271  A    between atoms: _896  and  _899
REMARK  272  A    between atoms: _899  and  _900
REMARK  273  A    between atoms: _906  and  _907
REMARK  274  A    between atoms: _907  and  _908
REMARK  275  A    between atoms: _913  and  _914
REMARK  276  A    between atoms: _914  and  _915
REMARK  277  A    between atoms: _914  and  _917
REMARK  278  A    between atoms: _917  and  _918
REMARK  279  A    between atoms: _918  and  _919
REMARK  280  A    between atoms: _919  and  _920
REMARK  281  A    between atoms: _920  and  _921
REMARK  282  A    between atoms: _935  and  _936
REMARK  283  A    between atoms: _936  and  _937
REMARK  284  A    between atoms: _936  and  _939
REMARK  285  A    between atoms: _939  and  _940
REMARK  286  A    between atoms: _940  and  _941
REMARK  287  A    between atoms: _950  and  _951
REMARK  288  A    between atoms: _951  and  _952
REMARK  289  A    between atoms: _951  and  _954
REMARK  290  A    between atoms: _954  and  _955
REMARK  291  A    between atoms: _955  and  _956
REMARK  292  A    between atoms: _955  and  _957
REMARK  293  A    between atoms: _969  and  _970
REMARK  294  A    between atoms: _970  and  _971
REMARK  295  A    between atoms: _970  and  _973
REMARK  296  A    between atoms: _973  and  _974
REMARK  297  A    between atoms: _986  and  _987
REMARK  298  A    between atoms: _987  and  _988
REMARK  299  A    between atoms: _987  and  _990
REMARK  300  A    between atoms: _990  and  _991
REMARK  301  A    between atoms: _990  and  _992
REMARK  302  A    between atoms: _991  and  _993
REMARK  303  A    between atoms: _1005  and  _1006
REMARK  304  A    between atoms: _1006  and  _1007
REMARK  305  A    between atoms: _1006  and  _1009
REMARK  306  A    between atoms: _1009  and  _1010
REMARK  307  A    between atoms: _1019  and  _1020
REMARK  308  A    between atoms: _1020  and  _1021
REMARK  309  A    between atoms: _1020  and  _1023
REMARK  310  A    between atoms: _1023  and  _1024
REMARK  311  A    between atoms: _1024  and  _1025
REMARK  312  A    between atoms: _1024  and  _1026
REMARK  313  A    between atoms: _1038  and  _1039
REMARK  314  A    between atoms: _1039  and  _1040
REMARK  315  A    between atoms: _1039  and  _1042
REMARK  316  A    between atoms: _1042  and  _1043
REMARK  317  A    between atoms: _1042  and  _1044
REMARK  318  A    between atoms: _1043  and  _1045
REMARK  319  A    between atoms: _1058  and  _1059
REMARK  320  A    between atoms: _1071  and  _1072
REMARK  321  A    between atoms: _1072  and  _1073
REMARK  322  A    between atoms: _1072  and  _1075
REMARK  323  A    between atoms: _1075  and  _1076
REMARK  324  A    between atoms: _1085  and  _1086
REMARK  325  A    between atoms: _1086  and  _1087
REMARK  326  A    between atoms: _1086  and  _1089
REMARK  327  A    between atoms: _1089  and  _1090
REMARK  328  A    between atoms: _1090  and  _1091
REMARK  329  A    between atoms: _1091  and  _1092
REMARK  330  A    between atoms: _1092  and  _1093
REMARK  331  A    between atoms: _1107  and  _1108
REMARK  332  A    between atoms: _1108  and  _1109
REMARK  333  A    between atoms: _1108  and  _1111
REMARK  334  A    between atoms: _1111  and  _1112
REMARK  335  A    between atoms: _1112  and  _1113
REMARK  336  A    between atoms: _1124  and  _1125
REMARK  337  A    between atoms: _1125  and  _1126
REMARK  338  A    between atoms: _1125  and  _1128
REMARK  339  A    between atoms: _1128  and  _1129
REMARK  340  A    between atoms: _1136  and  _1137
REMARK  341  A    between atoms: _1137  and  _1138
REMARK  342  A    between atoms: _1137  and  _1140
REMARK  343  A    between atoms: _1140  and  _1141
REMARK  344  A    between atoms: _1141  and  _1142
REMARK  345  A    between atoms: _1142  and  _1143
REMARK  346  A    between atoms: _1160  and  _1161
REMARK  347  A    between atoms: _1161  and  _1162
REMARK  348  A    between atoms: _1161  and  _1164
REMARK  349  A    between atoms: _1164  and  _1165
REMARK  350  A    between atoms: _1164  and  _1166
REMARK  351  A    between atoms: _1174  and  _1175
REMARK  352  A    between atoms: _1175  and  _1176
REMARK  353  A    between atoms: _1175  and  _1178
REMARK  354  A    between atoms: _1178  and  _1179
REMARK  355  A    between atoms: _1179  and  _1180
REMARK  356  A    between atoms: _1179  and  _1181
REMARK  357  A    between atoms: _1193  and  _1194
REMARK  358  A    between atoms: _1194  and  _1195
REMARK  359  A    between atoms: _1194  and  _1197
REMARK  360  A    between atoms: _1197  and  _1198
REMARK  361  A    between atoms: _1197  and  _1199
REMARK  362  A    between atoms: _1207  and  _1208
REMARK  363  A    between atoms: _1208  and  _1209
REMARK  364  A    between atoms: _1208  and  _1211
REMARK  365  A    between atoms: _1211  and  _1212
REMARK  366  A    between atoms: _1211  and  _1213
REMARK  367  A    between atoms: _1212  and  _1214
REMARK  368  A    between atoms: _1226  and  _1227
REMARK  369  A    between atoms: _1227  and  _1228
REMARK  370  A    between atoms: _1227  and  _1230
REMARK  371  A    between atoms: _1230  and  _1231
REMARK  372  A    between atoms: _1230  and  _1232
REMARK  373  A    between atoms: _1242  and  _1243
REMARK  374  A    between atoms: _1243  and  _1244
REMARK  375  A    between atoms: _1243  and  _1246
REMARK  376  A    between atoms: _1246  and  _1247
REMARK  377  A    between atoms: _1254  and  _1255
REMARK  378  A    between atoms: _1255  and  _1256
REMARK  379  A    between atoms: _1255  and  _1258
REMARK  380  A    between atoms: _1258  and  _1259
REMARK  381  A    between atoms: _1258  and  _1260
REMARK  382  A    between atoms: _1268  and  _1269
REMARK  383  A    between atoms: _1269  and  _1270
REMARK  384  A    between atoms: _1275  and  _1276
REMARK  385  A    between atoms: _1276  and  _1277
REMARK  386  A    between atoms: _1276  and  _1279
REMARK  387  A    between atoms: _1279  and  _1280
REMARK  388  A    between atoms: _1279  and  _1281
REMARK  389  A    between atoms: _1280  and  _1282
REMARK  390  A    between atoms: _1294  and  _1295
REMARK  391  A    between atoms: _1295  and  _1296
REMARK  392  A    between atoms: _1301  and  _1302
REMARK  393  A    between atoms: _1302  and  _1303
REMARK  394  A    between atoms: _1302  and  _1305
REMARK  395  A    between atoms: _1305  and  _1306
REMARK  396  A    between atoms: _1306  and  _1307
REMARK  397  A    between atoms: _1307  and  _1308
REMARK  398  A    between atoms: _1318  and  _1319
REMARK  399  A    between atoms: _1319  and  _1320
REMARK  400  A    between atoms: _1319  and  _1322
REMARK  401  A    between atoms: _1322  and  _1323
REMARK  402  A    between atoms: _1322  and  _1324
REMARK  403  A    between atoms: _1332  and  _1333
REMARK  404  A    between atoms: _1333  and  _1334
REMARK  405  A    between atoms: _1333  and  _1336
REMARK  406  A    between atoms: _1336  and  _1337
REMARK  407  A    between atoms: _1337  and  _1338
REMARK  408  A    between atoms: _1338  and  _1339
REMARK  409  A    between atoms: _1339  and  _1340
REMARK  410  A    between atoms: _1354  and  _1355
REMARK  411  A    between atoms: _1355  and  _1356
REMARK  412  A    between atoms: _1355  and  _1358
REMARK  413  A    between atoms: _1364  and  _1365
REMARK  414  A    between atoms: _1365  and  _1366
REMARK  415  A    between atoms: _1365  and  _1368
REMARK  416  A    between atoms: _1368  and  _1369
REMARK  417  A    between atoms: _1376  and  _1377
REMARK  418  A    between atoms: _1377  and  _1378
REMARK  419  A    between atoms: _1377  and  _1380
REMARK  420  A    between atoms: _1380  and  _1381
REMARK  421  A    between atoms: _1381  and  _1382
REMARK  422  A    between atoms: _1381  and  _1383
REMARK  423  A    between atoms: _1395  and  _1396
REMARK  424  A    between atoms: _1396  and  _1399
REMARK  425  A    between atoms: _1399  and  _1400
REMARK  426  A    between atoms: _1399  and  _1401
REMARK  427  A    between atoms: _1400  and  _1402
REMARK  428  A    between atoms: _1422  and  _1425
REMARK  429  A    between atoms: _1424  and  _1428
REMARK  430  A    between atoms: _1425  and  _1427
REMARK  431  A    between atoms: _1443  and  _1444
REMARK  432  A    between atoms: _1443  and  _1446
REMARK  433  A    between atoms: _1446  and  _1447
REMARK  434  A    between atoms: _1457  and  _1458
REMARK  435  A    between atoms: _1458  and  _1459
REMARK  436  A    between atoms: _1458  and  _1461
REMARK  437  A    between atoms: _1461  and  _1462
REMARK  438  A    between atoms: _1462  and  _1463
REMARK  439  A    between atoms: _1462  and  _1464
REMARK  440  A    between atoms: _1476  and  _1477
REMARK  441  A    between atoms: _1477  and  _1478
REMARK  442  A    between atoms: _1483  and  _1484
REMARK  443  A    between atoms: _1484  and  _1485
REMARK  444  A    between atoms: _1484  and  _1487
REMARK  445  A    between atoms: _1487  and  _1488
REMARK  446  A    between atoms: _1487  and  _1489
REMARK  447  A    between atoms: _1497  and  _1498
REMARK  448  A    between atoms: _1498  and  _1499
REMARK  449  A    between atoms: _1498  and  _1501
REMARK  450  A    between atoms: _1501  and  _1502
REMARK  451  A    between atoms: _1501  and  _1503
REMARK  452  A    between atoms: _1502  and  _1504
REMARK  453  A    between atoms: _1516  and  _1517
REMARK  454  A    between atoms: _1517  and  _1518
REMARK  455  A    between atoms: _1517  and  _1520
REMARK  456  A    between atoms: _1526  and  _1527
REMARK  457  A    between atoms: _1527  and  _1528
REMARK  458  A    between atoms: _1527  and  _1530
REMARK  459  A    between atoms: _1530  and  _1531
REMARK  460  A    between atoms: _1531  and  _1532
REMARK  461  A    between atoms: _1532  and  _1533
REMARK  462  A    between atoms: _1533  and  _1534
REMARK  463  A    between atoms: _1548  and  _1549
REMARK  464  A    between atoms: _1549  and  _1550
REMARK  465  A    between atoms: _1549  and  _1552
REMARK  466  A    between atoms: _1552  and  _1553
REMARK  467  A    between atoms: _1559  and  _1560
REMARK  468  A    between atoms: _1560  and  _1561
REMARK  469  A    between atoms: _1566  and  _1567
REMARK  470  A    between atoms: _1567  and  _1568
REMARK  471  A    between atoms: _1567  and  _1570
REMARK  472  A    between atoms: _1570  and  _1571
REMARK  473  A    between atoms: _1570  and  _1572
REMARK  474  A    between atoms: _1580  and  _1581
REMARK  475  A    between atoms: _1581  and  _1582
REMARK  476  A    between atoms: _1581  and  _1584
REMARK  477  A    between atoms: _1584  and  _1585
REMARK  478  A    between atoms: _1585  and  _1586
REMARK  479  A    between atoms: _1586  and  _1587
REMARK  480  A    between atoms: _1587  and  _1588
REMARK  481  A    between atoms: _1602  and  _1603
REMARK  482  A    between atoms: _1603  and  _1604
REMARK  483  A    between atoms: _1603  and  _1606
REMARK  484  A    between atoms: _1612  and  _1613
REMARK  485  A    between atoms: _1613  and  _1614
REMARK  486  A    between atoms: _1613  and  _1616
REMARK  487  A    between atoms: _1616  and  _1617
REMARK  488  A    between atoms: _1632  and  _1633
REMARK  489  A    between atoms: _1633  and  _1634
REMARK  490  A    between atoms: _1633  and  _1636
REMARK  491  A    between atoms: _1636  and  _1637
REMARK  492  A    between atoms: _1637  and  _1638
REMARK  493  A    between atoms: _1638  and  _1639
REMARK  494  A    between atoms: _1649  and  _1650
REMARK  495  A    between atoms: _1650  and  _1651
REMARK  496  A    between atoms: _1650  and  _1653
REMARK  497  A    between atoms: _1653  and  _1654
REMARK  498  A    between atoms: _1654  and  _1655
REMARK  499  A    between atoms: _1664  and  _1665
REMARK  500  A    between atoms: _1665  and  _1666
REMARK  501  A    between atoms: _1665  and  _1668
REMARK  502  A    between atoms: _1674  and  _1675
REMARK  503  A    between atoms: _1675  and  _1676
REMARK  504  A    between atoms: _1675  and  _1678
REMARK  505  A    between atoms: _1678  and  _1679
REMARK  506  A    between atoms: _1679  and  _1680
REMARK  507  A    between atoms: _1679  and  _1681
REMARK  508  A    between atoms: _1693  and  _1694
REMARK  509  A    between atoms: _1694  and  _1695
REMARK  510  A    between atoms: _1694  and  _1697
REMARK  511  A    between atoms: _1697  and  _1698
REMARK  512  A    between atoms: _1698  and  _1699
REMARK  513  A    between atoms: _1710  and  _1711
REMARK  514  A    between atoms: _1711  and  _1712
REMARK  515  A    between atoms: _1711  and  _1714
REMARK  516  A    between atoms: _1720  and  _1721
REMARK  517  A    between atoms: _1721  and  _1722
REMARK  518  A    between atoms: _1727  and  _1728
REMARK  519  A    between atoms: _1728  and  _1729
REMARK  520  A    between atoms: _1728  and  _1731
REMARK  521  A    between atoms: _1737  and  _1738
REMARK  522  A    between atoms: _1738  and  _1739
REMARK  523  A    between atoms: _1738  and  _1741
REMARK  524  A    between atoms: _1741  and  _1742
REMARK  525  A    between atoms: _1749  and  _1750
REMARK  526  A    between atoms: _1750  and  _1751
REMARK  527  A    between atoms: _1750  and  _1753
REMARK  528  A    between atoms: _1753  and  _1754
REMARK  529  A    between atoms: _1753  and  _1755
REMARK  530  A    between atoms: _1754  and  _1756
REMARK  531  A    between atoms: _1768  and  _1769
REMARK  532  A    between atoms: _1769  and  _1772
REMARK  533  A    between atoms: _1772  and  _1773
REMARK  534  A    between atoms: _1791  and  _1793
REMARK  535  A    between atoms: _1792  and  _1794
REMARK  536  A    between atoms: _1814  and  _1815
REMARK  537  A    between atoms: _1814  and  _1817
REMARK  538  A    between atoms: _1817  and  _1818
REMARK  539  A    between atoms: _1817  and  _1819
REMARK  540  A    between atoms: _1818  and  _1820
REMARK  541  A    between atoms: _1833  and  _1834
REMARK  542  A    between atoms: _1834  and  _1835
REMARK  543  A    between atoms: _1840  and  _1841
REMARK  544  A    between atoms: _1841  and  _1842
REMARK  545  A    between atoms: _1841  and  _1844
REMARK  546  A    between atoms: _1844  and  _1845
REMARK  547  A    between atoms: _1845  and  _1846
REMARK  548  A    between atoms: _1857  and  _1858
REMARK  549  A    between atoms: _1858  and  _1859
REMARK  550  A    between atoms: _1858  and  _1861
REMARK  551  A    between atoms: _1861  and  _1862
REMARK  552  A    between atoms: _1877  and  _1878
REMARK  553  A    between atoms: _1878  and  _1879
REMARK  554  A    between atoms: _1884  and  _1885
REMARK  555  A    between atoms: _1885  and  _1886
REMARK  556  A    between atoms: _1885  and  _1888
REMARK  557  A    between atoms: _1888  and  _1889
REMARK  558  A    between atoms: _1888  and  _1890
REMARK  559  A    between atoms: _1900  and  _1901
REMARK  560  A    between atoms: _1901  and  _1902
REMARK  561  A    between atoms: _1907  and  _1908
REMARK  562  A    between atoms: _1908  and  _1909
REMARK  563  A    between atoms: _1908  and  _1911
REMARK  564  A    between atoms: _1911  and  _1912
REMARK  565  A    between atoms: _1927  and  _1928
REMARK  566  A    between atoms: _1928  and  _1929
REMARK  567  A    between atoms: _1928  and  _1931
REMARK  568  A    between atoms: _1931  and  _1932
REMARK  569  A    between atoms: _1937  and  _1938
REMARK  570  A    between atoms: _1948  and  _1949
REMARK  571  A    between atoms: _1949  and  _1950
REMARK  572  A    between atoms: _1949  and  _1952
REMARK  573  A    between atoms: _1952  and  _1953
REMARK  574  A    between atoms: _1959  and  _1960
REMARK  575  A    between atoms: _1960  and  _1961
REMARK  576  A    between atoms: _1960  and  _1963
REMARK  577  A    between atoms: _1969  and  _1970
REMARK  578  A    between atoms: _1970  and  _1971
REMARK  579  A    between atoms: _1970  and  _1973
REMARK  580  A    between atoms: _1973  and  _1974
REMARK  581  A    between atoms: _1979  and  _1980
REMARK  582  A    between atoms: _1990  and  _1991
REMARK  583  A    between atoms: _1991  and  _1992
REMARK  584  A    between atoms: _1991  and  _1994
REMARK  585  A    between atoms: _1994  and  _1995
REMARK  586  A    between atoms: _1995  and  _1996
REMARK  587  A    between atoms: _1995  and  _1997
REMARK  588  A    between atoms: _2009  and  _2010
REMARK  589  A    between atoms: _2010  and  _2011
REMARK  590  A    between atoms: _2010  and  _2013
REMARK  591  A    between atoms: _2013  and  _2014
REMARK  592  A    between atoms: _2013  and  _2015
REMARK  593  A    between atoms: _2025  and  _2026
REMARK  594  A    between atoms: _2026  and  _2027
REMARK  595  A    between atoms: _2026  and  _2029
REMARK  596  A    between atoms: _2035  and  _2036
REMARK  597  A    between atoms: _2036  and  _2037
REMARK  598  A    between atoms: _2036  and  _2039
REMARK  599  A    between atoms: _2039  and  _2040
REMARK  600  A    between atoms: _2040  and  _2041
REMARK  601  A    between atoms: _2050  and  _2051
REMARK  602  A    between atoms: _2051  and  _2052
REMARK  603  A    between atoms: _2051  and  _2054
REMARK  604  A    between atoms: _2054  and  _2055
REMARK  605  A    between atoms: _2055  and  _2056
REMARK  606  A    between atoms: _2056  and  _2057
REMARK  607  A    between atoms: _2057  and  _2058
REMARK  608  A    between atoms: _2072  and  _2073
REMARK  609  A    between atoms: _2073  and  _2074
REMARK  610  A    between atoms: _2073  and  _2076
REMARK  611  A    between atoms: _2076  and  _2077
REMARK  612  A    between atoms: _2076  and  _2078
REMARK  613  A    between atoms: _2088  and  _2089
REMARK  614  A    between atoms: _2089  and  _2090
REMARK  615  A    between atoms: _2089  and  _2092
REMARK  616  A    between atoms: _2092  and  _2093
REMARK  617  A    between atoms: _2092  and  _2094
REMARK  618  A    between atoms: _2102  and  _2103
REMARK  619  A    between atoms: _2103  and  _2104
REMARK  620  A    between atoms: _2103  and  _2106
REMARK  621  A    between atoms: _2106  and  _2107
REMARK  622  A    between atoms: _2106  and  _2108
REMARK  623  A    between atoms: _2118  and  _2119
REMARK  624  A    between atoms: _2119  and  _2120
REMARK  625  A    between atoms: _2119  and  _2122
REMARK  626  A    between atoms: _2122  and  _2123
REMARK  627  A    between atoms: _2122  and  _2124
REMARK  628  A    between atoms: _2123  and  _2125
REMARK  629  A    between atoms: _2137  and  _2138
REMARK  630  A    between atoms: _2138  and  _2139
REMARK  631  A    between atoms: _2138  and  _2141
REMARK  632  A    between atoms: _2141  and  _2142
REMARK  633  A    between atoms: _2141  and  _2143
REMARK  634  A    between atoms: _2151  and  _2152
REMARK  635  A    between atoms: _2152  and  _2153
REMARK  636  A    between atoms: _2152  and  _2155
REMARK  637  A    between atoms: _2155  and  _2156
REMARK  638  A    between atoms: _2156  and  _2157
REMARK  639  A    between atoms: _2157  and  _2158
REMARK  640  A    between atoms: _2158  and  _2159
REMARK  641  A    between atoms: _2173  and  _2174
REMARK  642  A    between atoms: _2174  and  _2175
REMARK  643  A    between atoms: _2174  and  _2177
REMARK  644  A    between atoms: _2177  and  _2178
REMARK  645  A    between atoms: _2190  and  _2191
REMARK  646  A    between atoms: _2191  and  _2192
REMARK  647  A    between atoms: _2191  and  _2194
REMARK  648  A    between atoms: _2194  and  _2195
REMARK  649  A    between atoms: _2204  and  _2205
REMARK  650  A    between atoms: _2205  and  _2206
REMARK  651  A    between atoms: _2205  and  _2208
REMARK  652  A    between atoms: _2208  and  _2209
REMARK  653  A    between atoms: _2216  and  _2217
REMARK  654  A    between atoms: _2217  and  _2218
REMARK  655  A    between atoms: _2217  and  _2220
REMARK  656  A    between atoms: _2220  and  _2221
REMARK  657  A    between atoms: _2228  and  _2229
REMARK  658  A    between atoms: _2229  and  _2230
REMARK  659  A    between atoms: _2229  and  _2232
REMARK  660  A    between atoms: _2232  and  _2233
REMARK  661  A    between atoms: _2233  and  _2234
REMARK  662  A    between atoms: _2243  and  _2244
REMARK  663  A    between atoms: _2244  and  _2245
REMARK  664  A    between atoms: _2244  and  _2247
REMARK  665  A    between atoms: _2247  and  _2248
REMARK  666  A    between atoms: _2248  and  _2249
REMARK  667  A    between atoms: _2260  and  _2261
REMARK  668  A    between atoms: _2261  and  _2262
REMARK  669  A    between atoms: _2261  and  _2264
REMARK  670  A    between atoms: _2264  and  _2265
REMARK  671  A    between atoms: _2270  and  _2271
REMARK  672  A    between atoms: _2281  and  _2282
REMARK  673  A    between atoms: _2282  and  _2283
REMARK  674  A    between atoms: _2282  and  _2285
REMARK  675  A    between atoms: _2291  and  _2292
REMARK  676  A    between atoms: _2292  and  _2293
REMARK  677  A    between atoms: _2292  and  _2295
REMARK  678  A    between atoms: _2295  and  _2296
REMARK  679  A    between atoms: _2315  and  _2316
REMARK  680  A    between atoms: _2316  and  _2317
REMARK  681  A    between atoms: _2316  and  _2319
REMARK  682  A    between atoms: _2319  and  _2320
REMARK  683  A    between atoms: _2320  and  _2321
REMARK  684  A    between atoms: _2330  and  _2331
REMARK  685  A    between atoms: _2331  and  _2332
REMARK  686  A    between atoms: _2331  and  _2334
REMARK  687  A    between atoms: _2334  and  _2335
REMARK  688  A    between atoms: _2341  and  _2342
REMARK  689  A    between atoms: _2342  and  _2343
REMARK  690  A    between atoms: _2342  and  _2345
REMARK  691  A    between atoms: _2345  and  _2346
REMARK  692  A    between atoms: _2352  and  _2353
REMARK  693  A    between atoms: _2353  and  _2354
REMARK  694  A    between atoms: _2353  and  _2356
REMARK  695  A    between atoms: _2362  and  _2363
REMARK  696  A    between atoms: _2363  and  _2364
REMARK  697  A    between atoms: _2369  and  _2370
REMARK  698  A    between atoms: _2370  and  _2371
REMARK  699  A    between atoms: _2376  and  _2377
REMARK  700  A    between atoms: _2377  and  _2378
REMARK  701  A    between atoms: _2377  and  _2380
REMARK  702  A    between atoms: _2380  and  _2381
REMARK  703  A    between atoms: _2387  and  _2388
REMARK  704  A    between atoms: _2388  and  _2389
REMARK  705  A    between atoms: _2388  and  _2391
REMARK  706  A    between atoms: _2391  and  _2392
REMARK  707  A    between atoms: _2407  and  _2408
REMARK  708  A    between atoms: _2408  and  _2409
REMARK  709  A    between atoms: _2408  and  _2411
REMARK  710  A    between atoms: _2411  and  _2412
REMARK  711  A    between atoms: _2411  and  _2413
REMARK  712  A    between atoms: _2421  and  _2422
REMARK  713  A    between atoms: _2422  and  _2423
REMARK  714  A    between atoms: _2422  and  _2425
REMARK  715  A    between atoms: _2425  and  _2426
REMARK  716  A    between atoms: _2425  and  _2427
REMARK  717  A    between atoms: _2437  and  _2438
REMARK  718  A    between atoms: _2438  and  _2439
REMARK  719  A    between atoms: _2438  and  _2441
REMARK  720  A    between atoms: _2441  and  _2442
REMARK  721  A    between atoms: _2442  and  _2443
REMARK  722  A    between atoms: _2443  and  _2444
REMARK  723  A    between atoms: _2461  and  _2462
REMARK  724  A    between atoms: _2462  and  _2463
REMARK  725  A    between atoms: _2462  and  _2465
REMARK  726  A    between atoms: _2465  and  _2466
REMARK  727  A    between atoms: _2465  and  _2467
REMARK  728  A    between atoms: _2475  and  _2476
REMARK  729  A    between atoms: _2476  and  _2477
REMARK  730  A    between atoms: _2476  and  _2479
REMARK  731  A    between atoms: _2479  and  _2480
REMARK  732  A    between atoms: _2487  and  _2488
REMARK  733  A    between atoms: _2488  and  _2489
REMARK  734  A    between atoms: _2488  and  _2491
REMARK  735  A    between atoms: _2491  and  _2492
REMARK  736  A    between atoms: _2491  and  _2493
REMARK  737  A    between atoms: _2501  and  _2502
REMARK  738  A    between atoms: _2502  and  _2503
REMARK  739  A    between atoms: _2508  and  _2509
REMARK  740  A    between atoms: _2509  and  _2510
REMARK  741  A    between atoms: _2509  and  _2512
REMARK  742  A    between atoms: _2512  and  _2513
REMARK  743  A    between atoms: _2513  and  _2514
REMARK  744  A    between atoms: _2524  and  _2525
REMARK  745  A    between atoms: _2537  and  _2538
REMARK  746  A    between atoms: _2538  and  _2539
REMARK  747  A    between atoms: _2538  and  _2541
REMARK  748  A    between atoms: _2541  and  _2542
REMARK  749  A    between atoms: _2542  and  _2543
REMARK  750  A    between atoms: _2543  and  _2544
REMARK  751  A    between atoms: _2554  and  _2555
REMARK  752  A    between atoms: _2555  and  _2556
REMARK  753  A    between atoms: _2561  and  _2562
REMARK  754  A    between atoms: _2562  and  _2563
REMARK  755  A    between atoms: _2562  and  _2565
REMARK  756  A    between atoms: _2565  and  _2566
REMARK  757  A    between atoms: _2566  and  _2567
REMARK  758  A    between atoms: _2567  and  _2568
REMARK  759  A    between atoms: _2585  and  _2586
REMARK  760  A    between atoms: _2586  and  _2587
REMARK  761  A    between atoms: _2592  and  _2593
REMARK  762  A    between atoms: _2593  and  _2594
REMARK  763  A    between atoms: _2593  and  _2596
REMARK  764  A    between atoms: _2596  and  _2597
REMARK  765  A    between atoms: _2596  and  _2598
REMARK  766  A    between atoms: _2606  and  _2607
REMARK  767  A    between atoms: _2607  and  _2608
REMARK  768  A    between atoms: _2607  and  _2610
REMARK  769  A    between atoms: _2610  and  _2611
REMARK  770  A    between atoms: _2611  and  _2612
REMARK  771  A    between atoms: _2612  and  _2613
REMARK  772  A    between atoms: _2613  and  _2614
REMARK  773  A    between atoms: _2628  and  _2629
REMARK  774  A    between atoms: _2629  and  _2630
REMARK  775  A    between atoms: _2629  and  _2632
REMARK  776  A    between atoms: _2632  and  _2633
REMARK  777  A    between atoms: _2632  and  _2634
REMARK  778  A    between atoms: _2644  and  _2645
REMARK  779  A    between atoms: _2645  and  _2646
REMARK  780  A    between atoms: _2645  and  _2648
REMARK  781  A    between atoms: _2648  and  _2649
REMARK  782  A    between atoms: _2648  and  _2650
REMARK  783  A    between atoms: _2649  and  _2651
REMARK  784  A    between atoms: _2663  and  _2664
REMARK  785  A    between atoms: _2664  and  _2665
REMARK  786  A    between atoms: _2664  and  _2667
REMARK  787  A    between atoms: _2667  and  _2668
REMARK  788  A    between atoms: _2668  and  _2669
REMARK  789  A    between atoms: _2668  and  _2670
REMARK  790  A    between atoms: _2682  and  _2683
REMARK  791  A    between atoms: _2683  and  _2684
REMARK  792  A    between atoms: _2683  and  _2686
REMARK  793  A    between atoms: _2686  and  _2687
REMARK  794  A    between atoms: _2699  and  _2700
REMARK  795  A    between atoms: _2700  and  _2701
REMARK  796  A    between atoms: _2700  and  _2703
REMARK  797  A    between atoms: _2703  and  _2704
REMARK  798  A    between atoms: _2704  and  _2705
REMARK  799  A    between atoms: _2704  and  _2706
REMARK  800  A    between atoms: _2718  and  _2719
REMARK  801  A    between atoms: _2719  and  _2720
REMARK  802  A    between atoms: _2719  and  _2722
REMARK  803  A    between atoms: _2722  and  _2723
REMARK  804  A    between atoms: _2723  and  _2724
REMARK  805  A    between atoms: _2724  and  _2725
REMARK  806  A    between atoms: _2725  and  _2726
REMARK  807  A    between atoms: _2740  and  _2741
REMARK  808  A    between atoms: _2741  and  _2742
REMARK  809  A    between atoms: _2741  and  _2744
REMARK  810  A    between atoms: _2744  and  _2745
REMARK  811  A    between atoms: _2745  and  _2746
REMARK  812  A    between atoms: _2755  and  _2756
REMARK  813  A    between atoms: _2756  and  _2757
REMARK  814  A    between atoms: _2756  and  _2759
REMARK  815  A    between atoms: _2759  and  _2760
REMARK  816  A    between atoms: _2767  and  _2768
REMARK  817  A    between atoms: _2768  and  _2769
REMARK  818  A    between atoms: _2768  and  _2771
REMARK  819  A    between atoms: _2771  and  _2772
REMARK  820  A    between atoms: _2772  and  _2773
REMARK  821  A    between atoms: _2784  and  _2785
REMARK  822  A    between atoms: _2785  and  _2786
REMARK  823  A    between atoms: _2785  and  _2788
REMARK  824  A    between atoms: _2788  and  _2789
REMARK  825  A    between atoms: _2788  and  _2790
REMARK  826  A    between atoms: _2798  and  _2799
REMARK  827  A    between atoms: _2799  and  _2800
REMARK  828  A    between atoms: _2799  and  _2802
REMARK  829  A    between atoms: _2802  and  _2803
REMARK  830  A    between atoms: _2803  and  _2804
REMARK  831  A    between atoms: _2813  and  _2814
REMARK  832  A    between atoms: _2814  and  _2815
REMARK  833  A    between atoms: _2814  and  _2817
REMARK  834  A    between atoms: _2817  and  _2818
REMARK  835  A    between atoms: _2823  and  _2824
REMARK  836  A    between atoms: _2834  and  _2835
REMARK  837  A    between atoms: _2835  and  _2838
REMARK  838  A    between atoms: _2838  and  _2839
REMARK  839  A    between atoms: _2839  and  _2840
REMARK  840  A    between atoms: _2839  and  _2841
REMARK  841  A    between atoms: _2884  and  _2885
REMARK  842  A    between atoms: _2884  and  _2887
REMARK  843  A    between atoms: _2887  and  _2888
REMARK  844  A    between atoms: _2888  and  _2889
REMARK  845  A    between atoms: _2899  and  _2900
REMARK  846  A    between atoms: _2900  and  _2901
REMARK  847  A    between atoms: _2900  and  _2903
REMARK  848  A    between atoms: _2903  and  _2904
REMARK  849  A    between atoms: _2904  and  _2905
REMARK  850  A    between atoms: _2905  and  _2906
REMARK  851  A    between atoms: _2923  and  _2924
REMARK  852  A    between atoms: _2924  and  _2925
REMARK  853  A    between atoms: _2924  and  _2927
REMARK  854  A    between atoms: _2927  and  _2928
REMARK  855  A    between atoms: _2928  and  _2929
REMARK  856  A    between atoms: _2929  and  _2930
REMARK  857  A    between atoms: _2947  and  _2948
REMARK  858  A    between atoms: _2948  and  _2949
REMARK  859  A    between atoms: _2948  and  _2951
REMARK  860  A    between atoms: _2951  and  _2952
REMARK  861  A    between atoms: _2951  and  _2953
REMARK  862  A    between atoms: _2952  and  _2954
REMARK  863  A    between atoms: _2966  and  _2967
REMARK  864  A    between atoms: _2967  and  _2968
REMARK  865  A    between atoms: _2967  and  _2970
REMARK  866  A    between atoms: _2970  and  _2971
REMARK  867  A    between atoms: _2971  and  _2972
REMARK  868  A    between atoms: _2972  and  _2973
REMARK  869  A    between atoms: _2973  and  _2974
REMARK  870  A    between atoms: _2988  and  _2989
REMARK  871  A    between atoms: _2989  and  _2990
REMARK  872  A    between atoms: _2989  and  _2992
REMARK  873  A    between atoms: _2992  and  _2993
REMARK  874  A    between atoms: _2993  and  _2994
REMARK  875  A    between atoms: _3003  and  _3004
REMARK  876  A    between atoms: _3004  and  _3005
REMARK  877  A    between atoms: _3004  and  _3007
REMARK  878  A    between atoms: _3007  and  _3008
REMARK  879  A    between atoms: _3007  and  _3009
REMARK  880  A    between atoms: _3008  and  _3010
REMARK  881  A    between atoms: _3022  and  _3023
REMARK  882  A    between atoms: _3023  and  _3024
REMARK  883  A    between atoms: _3023  and  _3026
REMARK  884  A    between atoms: _3026  and  _3027
REMARK  885  A    between atoms: _3026  and  _3028
REMARK  886  A    between atoms: _3038  and  _3039
REMARK  887  A    between atoms: _3039  and  _3040
REMARK  888  A    between atoms: _3039  and  _3042
REMARK  889  A    between atoms: _3042  and  _3043
REMARK  890  A    between atoms: _3043  and  _3044
REMARK  891  A    between atoms: _3044  and  _3045
REMARK  892  A    between atoms: _3045  and  _3046
REMARK  893  A    between atoms: _3060  and  _3061
REMARK  894  A    between atoms: _3061  and  _3062
REMARK  895  A    between atoms: _3061  and  _3064
REMARK  896  A    between atoms: _3064  and  _3065
REMARK  897  A    between atoms: _3065  and  _3066
REMARK  898  A    between atoms: _3066  and  _3067
REMARK  899  A    between atoms: _3067  and  _3068
REMARK  900  A    between atoms: _3082  and  _3083
REMARK  901  A    between atoms: _3083  and  _3084
REMARK  902  A    between atoms: _3083  and  _3086
REMARK  903  A    between atoms: _3086  and  _3087
REMARK  904  A    between atoms: _3099  and  _3100
REMARK  905  A    between atoms: _3100  and  _3101
REMARK  906  A    between atoms: _3100  and  _3103
REMARK  907  A    between atoms: _3103  and  _3104
REMARK  908  A    between atoms: _3110  and  _3111
REMARK  909  A    between atoms: _3111  and  _3112
REMARK  910  A    between atoms: _3111  and  _3114
REMARK  911  A    between atoms: _3114  and  _3115
REMARK  912  A    between atoms: _3115  and  _3116
REMARK  913  A    between atoms: _3127  and  _3128
REMARK  914  A    between atoms: _3128  and  _3129
REMARK  915  A    between atoms: _3128  and  _3131
REMARK  916  A    between atoms: _3131  and  _3132
REMARK  917  A    between atoms: _3147  and  _3148
REMARK  918  A    between atoms: _3148  and  _3149
REMARK  919  A    between atoms: _3148  and  _3151
REMARK  920  A    between atoms: _3151  and  _3152
REMARK  921  A    between atoms: _3151  and  _3153
REMARK  922  A    between atoms: _3152  and  _3154
REMARK  923  A    between atoms: _3166  and  _3167
REMARK  924  A    between atoms: _3167  and  _3168
REMARK  925  A    between atoms: _3173  and  _3174
REMARK  926  A    between atoms: _3174  and  _3175
REMARK  927  A    between atoms: _3174  and  _3177
REMARK  928  A    between atoms: _3177  and  _3178
REMARK  929  A    between atoms: _3183  and  _3184
REMARK  930  A    between atoms: _3195  and  _3196
REMARK  931  A    between atoms: _3208  and  _3209
REMARK  932  A    between atoms: _3209  and  _3210
REMARK  933  A    between atoms: _3209  and  _3212
REMARK  934  A    between atoms: _3212  and  _3213
REMARK  935  A    between atoms: _3212  and  _3214
REMARK  936  A    between atoms: _3213  and  _3215
REMARK  937  A    between atoms: _3227  and  _3228
REMARK  938  A    between atoms: _3228  and  _3229
REMARK  939  A    between atoms: _3228  and  _3231
REMARK  940  A    between atoms: _3231  and  _3232
REMARK  941  A    between atoms: _3231  and  _3233
REMARK  942  A    between atoms: _3241  and  _3242
REMARK  943  A    between atoms: _3242  and  _3243
REMARK  944  A    between atoms: _3242  and  _3245
REMARK  945  A    between atoms: _3245  and  _3246
REMARK  946  A    between atoms: _3246  and  _3247
REMARK  947  A    between atoms: _3246  and  _3248
REMARK  948  A    between atoms: _3260  and  _3261
REMARK  949  A    between atoms: _3261  and  _3262
REMARK  950  A    between atoms: _3261  and  _3264
REMARK  951  A    between atoms: _3264  and  _3265
REMARK  952  A    between atoms: _3280  and  _3281
REMARK  953  A    between atoms: _3281  and  _3282
REMARK  954  A    between atoms: _3281  and  _3284
REMARK  955  A    between atoms: _3284  and  _3285
REMARK  956  A    between atoms: _3284  and  _3286
REMARK  957  A    between atoms: _3296  and  _3297
REMARK  958  A    between atoms: _3297  and  _3298
REMARK  959  A    between atoms: _3297  and  _3300
REMARK  960  A    between atoms: _3300  and  _3301
REMARK  961  A    between atoms: _3301  and  _3302
REMARK                            x       y       z     vdW  Elec       q    Type
REMARK                         _______ _______ _______ _____ _____    ______ ____
ROOT
ATOM      1  S   UNL     1       6.599  41.825  42.681  0.00  0.00    -0.182 S 
ATOM      2  C   UNL     1       5.106  41.025  43.314  0.00  0.00    +0.080 C 
ATOM      3  H   UNL     1       7.088  41.530  42.251  0.00  0.00    +0.101 HD
ENDROOT
TORSDOF 0
REMARK  Name = /Users/mlugowska/PhD/ML_residence_time_prediction/protein_files/5J20_protein.pdb
REMARK  961 active torsions:
REMARK  status: ('A' for Active; 'I' for Inactive)
REMARK    1  A    between atoms: _2  and  _3
REMARK    2  A    between atoms: _2  and  _5
REMARK    3  A    between atoms: _10  and  _11
REMARK    4  A    between atoms: _11  and  _12
REMARK    5  A    between atoms: _11  and  _14
REMARK    6  A    between atoms: _14  and  _15
REMARK    7  A    between atoms: _14  and  _16
REMARK    8  A    between atoms: _26  and  _27
REMARK    9  A    between atoms: _27  and  _28
REMARK   10  A    between atoms: _27  and  _30
REMARK   11  A    between atoms: _30  and  _31
REMARK   12  A    between atoms: _31  and  _32
REMARK   13  A    between atoms: _41  and  _42
REMARK   14  A    between atoms: _42  and  _43
REMARK   15  A    between atoms: _42  and  _45
REMARK   16  A    between atoms: _45  and  _46
REMARK   17  A    between atoms: _45  and  _47
REMARK   18  A    between atoms: _55  and  _56
REMARK   19  A    between atoms: _56  and  _57
REMARK   20  A    between atoms: _56  and  _59
REMARK   21  A    between atoms: _59  and  _60
REMARK   22  A    between atoms: _75  and  _76
REMARK   23  A    between atoms: _76  and  _77
REMARK   24  A    between atoms: _76  and  _79
REMARK   25  A    between atoms: _85  and  _86
REMARK   26  A    between atoms: _86  and  _87
REMARK   27  A    between atoms: _86  and  _89
REMARK   28  A    between atoms: _89  and  _90
REMARK   29  A    between atoms: _105  and  _106
REMARK   30  A    between atoms: _106  and  _107
REMARK   31  A    between atoms: _106  and  _109
REMARK   32  A    between atoms: _109  and  _110
REMARK   33  A    between atoms: _110  and  _111
REMARK   34  A    between atoms: _122  and  _123
REMARK   35  A    between atoms: _123  and  _124
REMARK   36  A    between atoms: _123  and  _126
REMARK   37  A    between atoms: _132  and  _133
REMARK   38  A    between atoms: _133  and  _134
REMARK   39  A    between atoms: _133  and  _136
REMARK   40  A    between atoms: _136  and  _137
REMARK   41  A    between atoms: _137  and  _138
REMARK   42  A    between atoms: _147  and  _148
REMARK   43  A    between atoms: _148  and  _149
REMARK   44  A    between atoms: _148  and  _151
REMARK   45  A    between atoms: _151  and  _152
REMARK   46  A    between atoms: _151  and  _153
REMARK   47  A    between atoms: _152  and  _154
REMARK   48  A    between atoms: _166  and  _167
REMARK   49  A    between atoms: _167  and  _168
REMARK   50  A    between atoms: _167  and  _170
REMARK   51  A    between atoms: _176  and  _177
REMARK   52  A    between atoms: _177  and  _178
REMARK   53  A    between atoms: _177  and  _180
REMARK   54  A    between atoms: _180  and  _181
REMARK   55  A    between atoms: _181  and  _182
REMARK   56  A    between atoms: _193  and  _194
REMARK   57  A    between atoms: _194  and  _195
REMARK   58  A    between atoms: _194  and  _197
REMARK   59  A    between atoms: _197  and  _198
REMARK   60  A    between atoms: _198  and  _199
REMARK   61  A    between atoms: _198  and  _200
REMARK   62  A    between atoms: _212  and  _213
REMARK   63  A    between atoms: _213  and  _214
REMARK   64  A    between atoms: _213  and  _216
REMARK   65  A    between atoms: _216  and  _217
REMARK   66  A    between atoms: _217  and  _218
REMARK   67  A    between atoms: _218  and  _219
REMARK   68  A    between atoms: _229  and  _230
REMARK   69  A    between atoms: _230  and  _231
REMARK   70  A    between atoms: _230  and  _233
REMARK   71  A    between atoms: _233  and  _234
REMARK   72  A    between atoms: _240  and  _241
REMARK   73  A    between atoms: _241  and  _242
REMARK   74  A    between atoms: _241  and  _244
REMARK   75  A    between atoms: _244  and  _245
REMARK   76  A    between atoms: _245  and  _246
REMARK   77  A    between atoms: _245  and  _247
REMARK   78  A    between atoms: _259  and  _260
REMARK   79  A    between atoms: _260  and  _261
REMARK   80  A    between atoms: _260  and  _263
REMARK   81  A    between atoms: _263  and  _264
REMARK   82  A    between atoms: _263  and  _265
REMARK   83  A    between atoms: _264  and  _266
REMARK   84  A    between atoms: _278  and  _279
REMARK   85  A    between atoms: _279  and  _280
REMARK   86  A    between atoms: _279  and  _282
REMARK   87  A    between atoms: _282  and  _283
REMARK   88  A    between atoms: _282  and  _284
REMARK   89  A    between atoms: _283  and  _285
REMARK   90  A    between atoms: _297  and  _298
REMARK   91  A    between atoms: _298  and  _299
REMARK   92  A    between atoms: _298  and  _301
REMARK   93  A    between atoms: _301  and  _302
REMARK   94  A    between atoms: _311  and  _312
REMARK   95  A    between atoms: _312  and  _313
REMARK   96  A    between atoms: _312  and  _315
REMARK   97  A    between atoms: _315  and  _316
REMARK   98  A    between atoms: _315  and  _317
REMARK   99  A    between atoms: _325  and  _326
REMARK  100  A    between atoms: _326  and  _327
REMARK  101  A    between atoms: _326  and  _329
REMARK  102  A    between atoms: _329  and  _330
REMARK  103  A    between atoms: _345  and  _346
REMARK  104  A    between atoms: _346  and  _347
REMARK  105  A    between atoms: _346  and  _349
REMARK  106  A    between atoms: _349  and  _350
REMARK  107  A    between atoms: _355  and  _356
REMARK  108  A    between atoms: _366  and  _367
REMARK  109  A    between atoms: _367  and  _368
REMARK  110  A    between atoms: _367  and  _370
REMARK  111  A    between atoms: _370  and  _371
REMARK  112  A    between atoms: _377  and  _378
REMARK  113  A    between atoms: _378  and  _379
REMARK  114  A    between atoms: _378  and  _381
REMARK  115  A    between atoms: _381  and  _382
REMARK  116  A    between atoms: _391  and  _392
REMARK  117  A    between atoms: _392  and  _393
REMARK  118  A    between atoms: _392  and  _395
REMARK  119  A    between atoms: _395  and  _396
REMARK  120  A    between atoms: _396  and  _397
REMARK  121  A    between atoms: _397  and  _398
REMARK  122  A    between atoms: _398  and  _399
REMARK  123  A    between atoms: _413  and  _414
REMARK  124  A    between atoms: _414  and  _415
REMARK  125  A    between atoms: _414  and  _417
REMARK  126  A    between atoms: _417  and  _418
REMARK  127  A    between atoms: _418  and  _419
REMARK  128  A    between atoms: _428  and  _429
REMARK  129  A    between atoms: _429  and  _430
REMARK  130  A    between atoms: _429  and  _432
REMARK  131  A    between atoms: _432  and  _433
REMARK  132  A    between atoms: _432  and  _434
REMARK  133  A    between atoms: _433  and  _435
REMARK  134  A    between atoms: _447  and  _448
REMARK  135  A    between atoms: _448  and  _449
REMARK  136  A    between atoms: _448  and  _451
REMARK  137  A    between atoms: _451  and  _452
REMARK  138  A    between atoms: _467  and  _468
REMARK  139  A    between atoms: _468  and  _469
REMARK  140  A    between atoms: _468  and  _471
REMARK  141  A    between atoms: _471  and  _472
REMARK  142  A    between atoms: _472  and  _473
REMARK  143  A    between atoms: _472  and  _474
REMARK  144  A    between atoms: _486  and  _487
REMARK  145  A    between atoms: _487  and  _488
REMARK  146  A    between atoms: _487  and  _490
REMARK  147  A    between atoms: _490  and  _491
REMARK  148  A    between atoms: _491  and  _492
REMARK  149  A    between atoms: _492  and  _493
REMARK  150  A    between atoms: _510  and  _511
REMARK  151  A    between atoms: _511  and  _512
REMARK  152  A    between atoms: _511  and  _514
REMARK  153  A    between atoms: _514  and  _515
REMARK  154  A    between atoms: _515  and  _516
REMARK  155  A    between atoms: _525  and  _526
REMARK  156  A    between atoms: _526  and  _527
REMARK  157  A    between atoms: _526  and  _529
REMARK  158  A    between atoms: _529  and  _530
REMARK  159  A    between atoms: _530  and  _531
REMARK  160  A    between atoms: _530  and  _532
REMARK  161  A    between atoms: _544  and  _545
REMARK  162  A    between atoms: _545  and  _546
REMARK  163  A    between atoms: _545  and  _548
REMARK  164  A    between atoms: _548  and  _549
REMARK  165  A    between atoms: _548  and  _550
REMARK  166  A    between atoms: _549  and  _551
REMARK  167  A    between atoms: _563  and  _564
REMARK  168  A    between atoms: _564  and  _565
REMARK  169  A    between atoms: _564  and  _567
REMARK  170  A    between atoms: _567  and  _568
REMARK  171  A    between atoms: _574  and  _575
REMARK  172  A    between atoms: _575  and  _576
REMARK  173  A    between atoms: _575  and  _578
REMARK  174  A    between atoms: _578  and  _579
REMARK  175  A    between atoms: _588  and  _589
REMARK  176  A    between atoms: _589  and  _590
REMARK  177  A    between atoms: _589  and  _592
REMARK  178  A    between atoms: _592  and  _593
REMARK  179  A    between atoms: _599  and  _600
REMARK  180  A    between atoms: _600  and  _601
REMARK  181  A    between atoms: _600  and  _603
REMARK  182  A    between atoms: _603  and  _604
REMARK  183  A    between atoms: _610  and  _611
REMARK  184  A    between atoms: _611  and  _612
REMARK  185  A    between atoms: _611  and  _614
REMARK  186  A    between atoms: _614  and  _615
REMARK  187  A    between atoms: _622  and  _623
REMARK  188  A    between atoms: _623  and  _624
REMARK  189  A    between atoms: _623  and  _626
REMARK  190  A    between atoms: _632  and  _633
REMARK  191  A    between atoms: _633  and  _634
REMARK  192  A    between atoms: _633  and  _636
REMARK  193  A    between atoms: _636  and  _637
REMARK  194  A    between atoms: _637  and  _638
REMARK  195  A    between atoms: _637  and  _639
REMARK  196  A    between atoms: _651  and  _652
REMARK  197  A    between atoms: _652  and  _653
REMARK  198  A    between atoms: _652  and  _655
REMARK  199  A    between atoms: _655  and  _656
REMARK  200  A    between atoms: _663  and  _664
REMARK  201  A    between atoms: _664  and  _665
REMARK  202  A    between atoms: _664  and  _667
REMARK  203  A    between atoms: _667  and  _668
REMARK  204  A    between atoms: _668  and  _669
REMARK  205  A    between atoms: _669  and  _670
REMARK  206  A    between atoms: _670  and  _671
REMARK  207  A    between atoms: _685  and  _686
REMARK  208  A    between atoms: _686  and  _687
REMARK  209  A    between atoms: _686  and  _689
REMARK  210  A    between atoms: _689  and  _690
REMARK  211  A    between atoms: _689  and  _691
REMARK  212  A    between atoms: _690  and  _692
REMARK  213  A    between atoms: _704  and  _705
REMARK  214  A    between atoms: _705  and  _706
REMARK  215  A    between atoms: _705  and  _708
REMARK  216  A    between atoms: _708  and  _709
REMARK  217  A    between atoms: _709  and  _710
REMARK  218  A    between atoms: _710  and  _711
REMARK  219  A    between atoms: _728  and  _729
REMARK  220  A    between atoms: _729  and  _730
REMARK  221  A    between atoms: _729  and  _732
REMARK  222  A    between atoms: _732  and  _733
REMARK  223  A    between atoms: _738  and  _739
REMARK  224  A    between atoms: _749  and  _750
REMARK  225  A    between atoms: _750  and  _751
REMARK  226  A    between atoms: _750  and  _753
REMARK  227  A    between atoms: _753  and  _754
REMARK  228  A    between atoms: _754  and  _755
REMARK  229  A    between atoms: _764  and  _765
REMARK  230  A    between atoms: _765  and  _766
REMARK  231  A    between atoms: _765  and  _768
REMARK  232  A    between atoms: _772  and  _773
REMARK  233  A    between atoms: _773  and  _774
REMARK  234  A    between atoms: _773  and  _776
REMARK  235  A    between atoms: _776  and  _777
REMARK  236  A    between atoms: _777  and  _778
REMARK  237  A    between atoms: _777  and  _779
REMARK  238  A    between atoms: _791  and  _792
REMARK  239  A    between atoms: _792  and  _793
REMARK  240  A    between atoms: _792  and  _795
REMARK  241  A    between atoms: _795  and  _796
REMARK  242  A    between atoms: _795  and  _797
REMARK  243  A    between atoms: _805  and  _806
REMARK  244  A    between atoms: _806  and  _807
REMARK  245  A    between atoms: _806  and  _809
REMARK  246  A    between atoms: _809  and  _810
REMARK  247  A    between atoms: _818  and  _819
REMARK  248  A    between atoms: _831  and  _832
REMARK  249  A    between atoms: _832  and  _833
REMARK  250  A    between atoms: _832  and  _835
REMARK  251  A    between atoms: _835  and  _836
REMARK  252  A    between atoms: _842  and  _843
REMARK  253  A    between atoms: _843  and  _844
REMARK  254  A    between atoms: _843  and  _846
REMARK  255  A    between atoms: _846  and  _847
REMARK  256  A    between atoms: _847  and  _848
REMARK  257  A    between atoms: _848  and  _849
REMARK  258  A    between atoms: _849  and  _850
REMARK  259  A    between atoms: _864  and  _865
REMARK  260  A    between atoms: _865  and  _866
REMARK  261  A    between atoms: _865  and  _868
REMARK  262  A    between atoms: _868  and  _869
REMARK  263  A    between atoms: _869  and  _870
REMARK  264  A    between atoms: _869  and  _871
REMARK  265  A    between atoms: _883  and  _884
REMARK  266  A    between atoms: _884  and  _885
REMARK  267  A    between atoms: _884  and  _887
REMARK  268  A    between atoms: _887  and  _888
REMARK  269  A    between atoms: _895  and  _896
REMARK  270  A    between atoms: _896  and  _897
REMARK  271  A    between atoms: _896  and  _899
REMARK  272  A    between atoms: _899  and  _900
REMARK  273  A    between atoms: _906  and  _907
REMARK  274  A    between atoms: _907  and  _908
REMARK  275  A    between atoms: _913  and  _914
REMARK  276  A    between atoms: _914  and  _915
REMARK  277  A    between atoms: _914  and  _917
REMARK  278  A    between atoms: _917  and  _918
REMARK  279  A    between atoms: _918  and  _919
REMARK  280  A    between atoms: _919  and  _920
REMARK  281  A    between atoms: _920  and  _921
REMARK  282  A    between atoms: _935  and  _936
REMARK  283  A    between atoms: _936  and  _937
REMARK  284  A    between atoms: _936  and  _939
REMARK  285  A    between atoms: _939  and  _940
REMARK  286  A    between atoms: _940  and  _941
REMARK  287  A    between atoms: _950  and  _951
REMARK  288  A    between atoms: _951  and  _952
REMARK  289  A    between atoms: _951  and  _954
REMARK  290  A    between atoms: _954  and  _955
REMARK  291  A    between atoms: _955  and  _956
REMARK  292  A    between atoms: _955  and  _957
REMARK  293  A    between atoms: _969  and  _970
REMARK  294  A    between atoms: _970  and  _971
REMARK  295  A    between atoms: _970  and  _973
REMARK  296  A    between atoms: _973  and  _974
REMARK  297  A    between atoms: _986  and  _987
REMARK  298  A    between atoms: _987  and  _988
REMARK  299  A    between atoms: _987  and  _990
REMARK  300  A    between atoms: _990  and  _991
REMARK  301  A    between atoms: _990  and  _992
REMARK  302  A    between atoms: _991  and  _993
REMARK  303  A    between atoms: _1005  and  _1006
REMARK  304  A    between atoms: _1006  and  _1007
REMARK  305  A    between atoms: _1006  and  _1009
REMARK  306  A    between atoms: _1009  and  _1010
REMARK  307  A    between atoms: _1019  and  _1020
REMARK  308  A    between atoms: _1020  and  _1021
REMARK  309  A    between atoms: _1020  and  _1023
REMARK  310  A    between atoms: _1023  and  _1024
REMARK  311  A    between atoms: _1024  and  _1025
REMARK  312  A    between atoms: _1024  and  _1026
REMARK  313  A    between atoms: _1038  and  _1039
REMARK  314  A    between atoms: _1039  and  _1040
REMARK  315  A    between atoms: _1039  and  _1042
REMARK  316  A    between atoms: _1042  and  _1043
REMARK  317  A    between atoms: _1042  and  _1044
REMARK  318  A    between atoms: _1043  and  _1045
REMARK  319  A    between atoms: _1058  and  _1059
REMARK  320  A    between atoms: _1071  and  _1072
REMARK  321  A    between atoms: _1072  and  _1073
REMARK  322  A    between atoms: _1072  and  _1075
REMARK  323  A    between atoms: _1075  and  _1076
REMARK  324  A    between atoms: _1085  and  _1086
REMARK  325  A    between atoms: _1086  and  _1087
REMARK  326  A    between atoms: _1086  and  _1089
REMARK  327  A    between atoms: _1089  and  _1090
REMARK  328  A    between atoms: _1090  and  _1091
REMARK  329  A    between atoms: _1091  and  _1092
REMARK  330  A    between atoms: _1092  and  _1093
REMARK  331  A    between atoms: _1107  and  _1108
REMARK  332  A    between atoms: _1108  and  _1109
REMARK  333  A    between atoms: _1108  and  _1111
REMARK  334  A    between atoms: _1111  and  _1112
REMARK  335  A    between atoms: _1112  and  _1113
REMARK  336  A    between atoms: _1124  and  _1125
REMARK  337  A    between atoms: _1125  and  _1126
REMARK  338  A    between atoms: _1125  and  _1128
REMARK  339  A    between atoms: _1128  and  _1129
REMARK  340  A    between atoms: _1136  and  _1137
REMARK  341  A    between atoms: _1137  and  _1138
REMARK  342  A    between atoms: _1137  and  _1140
REMARK  343  A    between atoms: _1140  and  _1141
REMARK  344  A    between atoms: _1141  and  _1142
REMARK  345  A    between atoms: _1142  and  _1143
REMARK  346  A    between atoms: _1160  and  _1161
REMARK  347  A    between atoms: _1161  and  _1162
REMARK  348  A    between atoms: _1161  and  _1164
REMARK  349  A    between atoms: _1164  and  _1165
REMARK  350  A    between atoms: _1164  and  _1166
REMARK  351  A    between atoms: _1174  and  _1175
REMARK  352  A    between atoms: _1175  and  _1176
REMARK  353  A    between atoms: _1175  and  _1178
REMARK  354  A    between atoms: _1178  and  _1179
REMARK  355  A    between atoms: _1179  and  _1180
REMARK  356  A    between atoms: _1179  and  _1181
REMARK  357  A    between atoms: _1193  and  _1194
REMARK  358  A    between atoms: _1194  and  _1195
REMARK  359  A    between atoms: _1194  and  _1197
REMARK  360  A    between atoms: _1197  and  _1198
REMARK  361  A    between atoms: _1197  and  _1199
REMARK  362  A    between atoms: _1207  and  _1208
REMARK  363  A    between atoms: _1208  and  _1209
REMARK  364  A    between atoms: _1208  and  _1211
REMARK  365  A    between atoms: _1211  and  _1212
REMARK  366  A    between atoms: _1211  and  _1213
REMARK  367  A    between atoms: _1212  and  _1214
REMARK  368  A    between atoms: _1226  and  _1227
REMARK  369  A    between atoms: _1227  and  _1228
REMARK  370  A    between atoms: _1227  and  _1230
REMARK  371  A    between atoms: _1230  and  _1231
REMARK  372  A    between atoms: _1230  and  _1232
REMARK  373  A    between atoms: _1242  and  _1243
REMARK  374  A    between atoms: _1243  and  _1244
REMARK  375  A    between atoms: _1243  and  _1246
REMARK  376  A    between atoms: _1246  and  _1247
REMARK  377  A    between atoms: _1254  and  _1255
REMARK  378  A    between atoms: _1255  and  _1256
REMARK  379  A    between atoms: _1255  and  _1258
REMARK  380  A    between atoms: _1258  and  _1259
REMARK  381  A    between atoms: _1258  and  _1260
REMARK  382  A    between atoms: _1268  and  _1269
REMARK  383  A    between atoms: _1269  and  _1270
REMARK  384  A    between atoms: _1275  and  _1276
REMARK  385  A    between atoms: _1276  and  _1277
REMARK  386  A    between atoms: _1276  and  _1279
REMARK  387  A    between atoms: _1279  and  _1280
REMARK  388  A    between atoms: _1279  and  _1281
REMARK  389  A    between atoms: _1280  and  _1282
REMARK  390  A    between atoms: _1294  and  _1295
REMARK  391  A    between atoms: _1295  and  _1296
REMARK  392  A    between atoms: _1301  and  _1302
REMARK  393  A    between atoms: _1302  and  _1303
REMARK  394  A    between atoms: _1302  and  _1305
REMARK  395  A    between atoms: _1305  and  _1306
REMARK  396  A    between atoms: _1306  and  _1307
REMARK  397  A    between atoms: _1307  and  _1308
REMARK  398  A    between atoms: _1318  and  _1319
REMARK  399  A    between atoms: _1319  and  _1320
REMARK  400  A    between atoms: _1319  and  _1322
REMARK  401  A    between atoms: _1322  and  _1323
REMARK  402  A    between atoms: _1322  and  _1324
REMARK  403  A    between atoms: _1332  and  _1333
REMARK  404  A    between atoms: _1333  and  _1334
REMARK  405  A    between atoms: _1333  and  _1336
REMARK  406  A    between atoms: _1336  and  _1337
REMARK  407  A    between atoms: _1337  and  _1338
REMARK  408  A    between atoms: _1338  and  _1339
REMARK  409  A    between atoms: _1339  and  _1340
REMARK  410  A    between atoms: _1354  and  _1355
REMARK  411  A    between atoms: _1355  and  _1356
REMARK  412  A    between atoms: _1355  and  _1358
REMARK  413  A    between atoms: _1364  and  _1365
REMARK  414  A    between atoms: _1365  and  _1366
REMARK  415  A    between atoms: _1365  and  _1368
REMARK  416  A    between atoms: _1368  and  _1369
REMARK  417  A    between atoms: _1376  and  _1377
REMARK  418  A    between atoms: _1377  and  _1378
REMARK  419  A    between atoms: _1377  and  _1380
REMARK  420  A    between atoms: _1380  and  _1381
REMARK  421  A    between atoms: _1381  and  _1382
REMARK  422  A    between atoms: _1381  and  _1383
REMARK  423  A    between atoms: _1395  and  _1396
REMARK  424  A    between atoms: _1396  and  _1399
REMARK  425  A    between atoms: _1399  and  _1400
REMARK  426  A    between atoms: _1399  and  _1401
REMARK  427  A    between atoms: _1400  and  _1402
REMARK  428  A    between atoms: _1422  and  _1425
REMARK  429  A    between atoms: _1424  and  _1428
REMARK  430  A    between atoms: _1425  and  _1427
REMARK  431  A    between atoms: _1443  and  _1444
REMARK  432  A    between atoms: _1443  and  _1446
REMARK  433  A    between atoms: _1446  and  _1447
REMARK  434  A    between atoms: _1457  and  _1458
REMARK  435  A    between atoms: _1458  and  _1459
REMARK  436  A    between atoms: _1458  and  _1461
REMARK  437  A    between atoms: _1461  and  _1462
REMARK  438  A    between atoms: _1462  and  _1463
REMARK  439  A    between atoms: _1462  and  _1464
REMARK  440  A    between atoms: _1476  and  _1477
REMARK  441  A    between atoms: _1477  and  _1478
REMARK  442  A    between atoms: _1483  and  _1484
REMARK  443  A    between atoms: _1484  and  _1485
REMARK  444  A    between atoms: _1484  and  _1487
REMARK  445  A    between atoms: _1487  and  _1488
REMARK  446  A    between atoms: _1487  and  _1489
REMARK  447  A    between atoms: _1497  and  _1498
REMARK  448  A    between atoms: _1498  and  _1499
REMARK  449  A    between atoms: _1498  and  _1501
REMARK  450  A    between atoms: _1501  and  _1502
REMARK  451  A    between atoms: _1501  and  _1503
REMARK  452  A    between atoms: _1502  and  _1504
REMARK  453  A    between atoms: _1516  and  _1517
REMARK  454  A    between atoms: _1517  and  _1518
REMARK  455  A    between atoms: _1517  and  _1520
REMARK  456  A    between atoms: _1526  and  _1527
REMARK  457  A    between atoms: _1527  and  _1528
REMARK  458  A    between atoms: _1527  and  _1530
REMARK  459  A    between atoms: _1530  and  _1531
REMARK  460  A    between atoms: _1531  and  _1532
REMARK  461  A    between atoms: _1532  and  _1533
REMARK  462  A    between atoms: _1533  and  _1534
REMARK  463  A    between atoms: _1548  and  _1549
REMARK  464  A    between atoms: _1549  and  _1550
REMARK  465  A    between atoms: _1549  and  _1552
REMARK  466  A    between atoms: _1552  and  _1553
REMARK  467  A    between atoms: _1559  and  _1560
REMARK  468  A    between atoms: _1560  and  _1561
REMARK  469  A    between atoms: _1566  and  _1567
REMARK  470  A    between atoms: _1567  and  _1568
REMARK  471  A    between atoms: _1567  and  _1570
REMARK  472  A    between atoms: _1570  and  _1571
REMARK  473  A    between atoms: _1570  and  _1572
REMARK  474  A    between atoms: _1580  and  _1581
REMARK  475  A    between atoms: _1581  and  _1582
REMARK  476  A    between atoms: _1581  and  _1584
REMARK  477  A    between atoms: _1584  and  _1585
REMARK  478  A    between atoms: _1585  and  _1586
REMARK  479  A    between atoms: _1586  and  _1587
REMARK  480  A    between atoms: _1587  and  _1588
REMARK  481  A    between atoms: _1602  and  _1603
REMARK  482  A    between atoms: _1603  and  _1604
REMARK  483  A    between atoms: _1603  and  _1606
REMARK  484  A    between atoms: _1612  and  _1613
REMARK  485  A    between atoms: _1613  and  _1614
REMARK  486  A    between atoms: _1613  and  _1616
REMARK  487  A    between atoms: _1616  and  _1617
REMARK  488  A    between atoms: _1632  and  _1633
REMARK  489  A    between atoms: _1633  and  _1634
REMARK  490  A    between atoms: _1633  and  _1636
REMARK  491  A    between atoms: _1636  and  _1637
REMARK  492  A    between atoms: _1637  and  _1638
REMARK  493  A    between atoms: _1638  and  _1639
REMARK  494  A    between atoms: _1649  and  _1650
REMARK  495  A    between atoms: _1650  and  _1651
REMARK  496  A    between atoms: _1650  and  _1653
REMARK  497  A    between atoms: _1653  and  _1654
REMARK  498  A    between atoms: _1654  and  _1655
REMARK  499  A    between atoms: _1664  and  _1665
REMARK  500  A    between atoms: _1665  and  _1666
REMARK  501  A    between atoms: _1665  and  _1668
REMARK  502  A    between atoms: _1674  and  _1675
REMARK  503  A    between atoms: _1675  and  _1676
REMARK  504  A    between atoms: _1675  and  _1678
REMARK  505  A    between atoms: _1678  and  _1679
REMARK  506  A    between atoms: _1679  and  _1680
REMARK  507  A    between atoms: _1679  and  _1681
REMARK  508  A    between atoms: _1693  and  _1694
REMARK  509  A    between atoms: _1694  and  _1695
REMARK  510  A    between atoms: _1694  and  _1697
REMARK  511  A    between atoms: _1697  and  _1698
REMARK  512  A    between atoms: _1698  and  _1699
REMARK  513  A    between atoms: _1710  and  _1711
REMARK  514  A    between atoms: _1711  and  _1712
REMARK  515  A    between atoms: _1711  and  _1714
REMARK  516  A    between atoms: _1720  and  _1721
REMARK  517  A    between atoms: _1721  and  _1722
REMARK  518  A    between atoms: _1727  and  _1728
REMARK  519  A    between atoms: _1728  and  _1729
REMARK  520  A    between atoms: _1728  and  _1731
REMARK  521  A    between atoms: _1737  and  _1738
REMARK  522  A    between atoms: _1738  and  _1739
REMARK  523  A    between atoms: _1738  and  _1741
REMARK  524  A    between atoms: _1741  and  _1742
REMARK  525  A    between atoms: _1749  and  _1750
REMARK  526  A    between atoms: _1750  and  _1751
REMARK  527  A    between atoms: _1750  and  _1753
REMARK  528  A    between atoms: _1753  and  _1754
REMARK  529  A    between atoms: _1753  and  _1755
REMARK  530  A    between atoms: _1754  and  _1756
REMARK  531  A    between atoms: _1768  and  _1769
REMARK  532  A    between atoms: _1769  and  _1772
REMARK  533  A    between atoms: _1772  and  _1773
REMARK  534  A    between atoms: _1791  and  _1793
REMARK  535  A    between atoms: _1792  and  _1794
REMARK  536  A    between atoms: _1814  and  _1815
REMARK  537  A    between atoms: _1814  and  _1817
REMARK  538  A    between atoms: _1817  and  _1818
REMARK  539  A    between atoms: _1817  and  _1819
REMARK  540  A    between atoms: _1818  and  _1820
REMARK  541  A    between atoms: _1833  and  _1834
REMARK  542  A    between atoms: _1834  and  _1835
REMARK  543  A    between atoms: _1840  and  _1841
REMARK  544  A    between atoms: _1841  and  _1842
REMARK  545  A    between atoms: _1841  and  _1844
REMARK  546  A    between atoms: _1844  and  _1845
REMARK  547  A    between atoms: _1845  and  _1846
REMARK  548  A    between atoms: _1857  and  _1858
REMARK  549  A    between atoms: _1858  and  _1859
REMARK  550  A    between atoms: _1858  and  _1861
REMARK  551  A    between atoms: _1861  and  _1862
REMARK  552  A    between atoms: _1877  and  _1878
REMARK  553  A    between atoms: _1878  and  _1879
REMARK  554  A    between atoms: _1884  and  _1885
REMARK  555  A    between atoms: _1885  and  _1886
REMARK  556  A    between atoms: _1885  and  _1888
REMARK  557  A    between atoms: _1888  and  _1889
REMARK  558  A    between atoms: _1888  and  _1890
REMARK  559  A    between atoms: _1900  and  _1901
REMARK  560  A    between atoms: _1901  and  _1902
REMARK  561  A    between atoms: _1907  and  _1908
REMARK  562  A    between atoms: _1908  and  _1909
REMARK  563  A    between atoms: _1908  and  _1911
REMARK  564  A    between atoms: _1911  and  _1912
REMARK  565  A    between atoms: _1927  and  _1928
REMARK  566  A    between atoms: _1928  and  _1929
REMARK  567  A    between atoms: _1928  and  _1931
REMARK  568  A    between atoms: _1931  and  _1932
REMARK  569  A    between atoms: _1937  and  _1938
REMARK  570  A    between atoms: _1948  and  _1949
REMARK  571  A    between atoms: _1949  and  _1950
REMARK  572  A    between atoms: _1949  and  _1952
REMARK  573  A    between atoms: _1952  and  _1953
REMARK  574  A    between atoms: _1959  and  _1960
REMARK  575  A    between atoms: _1960  and  _1961
REMARK  576  A    between atoms: _1960  and  _1963
REMARK  577  A    between atoms: _1969  and  _1970
REMARK  578  A    between atoms: _1970  and  _1971
REMARK  579  A    between atoms: _1970  and  _1973
REMARK  580  A    between atoms: _1973  and  _1974
REMARK  581  A    between atoms: _1979  and  _1980
REMARK  582  A    between atoms: _1990  and  _1991
REMARK  583  A    between atoms: _1991  and  _1992
REMARK  584  A    between atoms: _1991  and  _1994
REMARK  585  A    between atoms: _1994  and  _1995
REMARK  586  A    between atoms: _1995  and  _1996
REMARK  587  A    between atoms: _1995  and  _1997
REMARK  588  A    between atoms: _2009  and  _2010
REMARK  589  A    between atoms: _2010  and  _2011
REMARK  590  A    between atoms: _2010  and  _2013
REMARK  591  A    between atoms: _2013  and  _2014
REMARK  592  A    between atoms: _2013  and  _2015
REMARK  593  A    between atoms: _2025  and  _2026
REMARK  594  A    between atoms: _2026  and  _2027
REMARK  595  A    between atoms: _2026  and  _2029
REMARK  596  A    between atoms: _2035  and  _2036
REMARK  597  A    between atoms: _2036  and  _2037
REMARK  598  A    between atoms: _2036  and  _2039
REMARK  599  A    between atoms: _2039  and  _2040
REMARK  600  A    between atoms: _2040  and  _2041
REMARK  601  A    between atoms: _2050  and  _2051
REMARK  602  A    between atoms: _2051  and  _2052
REMARK  603  A    between atoms: _2051  and  _2054
REMARK  604  A    between atoms: _2054  and  _2055
REMARK  605  A    between atoms: _2055  and  _2056
REMARK  606  A    between atoms: _2056  and  _2057
REMARK  607  A    between atoms: _2057  and  _2058
REMARK  608  A    between atoms: _2072  and  _2073
REMARK  609  A    between atoms: _2073  and  _2074
REMARK  610  A    between atoms: _2073  and  _2076
REMARK  611  A    between atoms: _2076  and  _2077
REMARK  612  A    between atoms: _2076  and  _2078
REMARK  613  A    between atoms: _2088  and  _2089
REMARK  614  A    between atoms: _2089  and  _2090
REMARK  615  A    between atoms: _2089  and  _2092
REMARK  616  A    between atoms: _2092  and  _2093
REMARK  617  A    between atoms: _2092  and  _2094
REMARK  618  A    between atoms: _2102  and  _2103
REMARK  619  A    between atoms: _2103  and  _2104
REMARK  620  A    between atoms: _2103  and  _2106
REMARK  621  A    between atoms: _2106  and  _2107
REMARK  622  A    between atoms: _2106  and  _2108
REMARK  623  A    between atoms: _2118  and  _2119
REMARK  624  A    between atoms: _2119  and  _2120
REMARK  625  A    between atoms: _2119  and  _2122
REMARK  626  A    between atoms: _2122  and  _2123
REMARK  627  A    between atoms: _2122  and  _2124
REMARK  628  A    between atoms: _2123  and  _2125
REMARK  629  A    between atoms: _2137  and  _2138
REMARK  630  A    between atoms: _2138  and  _2139
REMARK  631  A    between atoms: _2138  and  _2141
REMARK  632  A    between atoms: _2141  and  _2142
REMARK  633  A    between atoms: _2141  and  _2143
REMARK  634  A    between atoms: _2151  and  _2152
REMARK  635  A    between atoms: _2152  and  _2153
REMARK  636  A    between atoms: _2152  and  _2155
REMARK  637  A    between atoms: _2155  and  _2156
REMARK  638  A    between atoms: _2156  and  _2157
REMARK  639  A    between atoms: _2157  and  _2158
REMARK  640  A    between atoms: _2158  and  _2159
REMARK  641  A    between atoms: _2173  and  _2174
REMARK  642  A    between atoms: _2174  and  _2175
REMARK  643  A    between atoms: _2174  and  _2177
REMARK  644  A    between atoms: _2177  and  _2178
REMARK  645  A    between atoms: _2190  and  _2191
REMARK  646  A    between atoms: _2191  and  _2192
REMARK  647  A    between atoms: _2191  and  _2194
REMARK  648  A    between atoms: _2194  and  _2195
REMARK  649  A    between atoms: _2204  and  _2205
REMARK  650  A    between atoms: _2205  and  _2206
REMARK  651  A    between atoms: _2205  and  _2208
REMARK  652  A    between atoms: _2208  and  _2209
REMARK  653  A    between atoms: _2216  and  _2217
REMARK  654  A    between atoms: _2217  and  _2218
REMARK  655  A    between atoms: _2217  and  _2220
REMARK  656  A    between atoms: _2220  and  _2221
REMARK  657  A    between atoms: _2228  and  _2229
REMARK  658  A    between atoms: _2229  and  _2230
REMARK  659  A    between atoms: _2229  and  _2232
REMARK  660  A    between atoms: _2232  and  _2233
REMARK  661  A    between atoms: _2233  and  _2234
REMARK  662  A    between atoms: _2243  and  _2244
REMARK  663  A    between atoms: _2244  and  _2245
REMARK  664  A    between atoms: _2244  and  _2247
REMARK  665  A    between atoms: _2247  and  _2248
REMARK  666  A    between atoms: _2248  and  _2249
REMARK  667  A    between atoms: _2260  and  _2261
REMARK  668  A    between atoms: _2261  and  _2262
REMARK  669  A    between atoms: _2261  and  _2264
REMARK  670  A    between atoms: _2264  and  _2265
REMARK  671  A    between atoms: _2270  and  _2271
REMARK  672  A    between atoms: _2281  and  _2282
REMARK  673  A    between atoms: _2282  and  _2283
REMARK  674  A    between atoms: _2282  and  _2285
REMARK  675  A    between atoms: _2291  and  _2292
REMARK  676  A    between atoms: _2292  and  _2293
REMARK  677  A    between atoms: _2292  and  _2295
REMARK  678  A    between atoms: _2295  and  _2296
REMARK  679  A    between atoms: _2315  and  _2316
REMARK  680  A    between atoms: _2316  and  _2317
REMARK  681  A    between atoms: _2316  and  _2319
REMARK  682  A    between atoms: _2319  and  _2320
REMARK  683  A    between atoms: _2320  and  _2321
REMARK  684  A    between atoms: _2330  and  _2331
REMARK  685  A    between atoms: _2331  and  _2332
REMARK  686  A    between atoms: _2331  and  _2334
REMARK  687  A    between atoms: _2334  and  _2335
REMARK  688  A    between atoms: _2341  and  _2342
REMARK  689  A    between atoms: _2342  and  _2343
REMARK  690  A    between atoms: _2342  and  _2345
REMARK  691  A    between atoms: _2345  and  _2346
REMARK  692  A    between atoms: _2352  and  _2353
REMARK  693  A    between atoms: _2353  and  _2354
REMARK  694  A    between atoms: _2353  and  _2356
REMARK  695  A    between atoms: _2362  and  _2363
REMARK  696  A    between atoms: _2363  and  _2364
REMARK  697  A    between atoms: _2369  and  _2370
REMARK  698  A    between atoms: _2370  and  _2371
REMARK  699  A    between atoms: _2376  and  _2377
REMARK  700  A    between atoms: _2377  and  _2378
REMARK  701  A    between atoms: _2377  and  _2380
REMARK  702  A    between atoms: _2380  and  _2381
REMARK  703  A    between atoms: _2387  and  _2388
REMARK  704  A    between atoms: _2388  and  _2389
REMARK  705  A    between atoms: _2388  and  _2391
REMARK  706  A    between atoms: _2391  and  _2392
REMARK  707  A    between atoms: _2407  and  _2408
REMARK  708  A    between atoms: _2408  and  _2409
REMARK  709  A    between atoms: _2408  and  _2411
REMARK  710  A    between atoms: _2411  and  _2412
REMARK  711  A    between atoms: _2411  and  _2413
REMARK  712  A    between atoms: _2421  and  _2422
REMARK  713  A    between atoms: _2422  and  _2423
REMARK  714  A    between atoms: _2422  and  _2425
REMARK  715  A    between atoms: _2425  and  _2426
REMARK  716  A    between atoms: _2425  and  _2427
REMARK  717  A    between atoms: _2437  and  _2438
REMARK  718  A    between atoms: _2438  and  _2439
REMARK  719  A    between atoms: _2438  and  _2441
REMARK  720  A    between atoms: _2441  and  _2442
REMARK  721  A    between atoms: _2442  and  _2443
REMARK  722  A    between atoms: _2443  and  _2444
REMARK  723  A    between atoms: _2461  and  _2462
REMARK  724  A    between atoms: _2462  and  _2463
REMARK  725  A    between atoms: _2462  and  _2465
REMARK  726  A    between atoms: _2465  and  _2466
REMARK  727  A    between atoms: _2465  and  _2467
REMARK  728  A    between atoms: _2475  and  _2476
REMARK  729  A    between atoms: _2476  and  _2477
REMARK  730  A    between atoms: _2476  and  _2479
REMARK  731  A    between atoms: _2479  and  _2480
REMARK  732  A    between atoms: _2487  and  _2488
REMARK  733  A    between atoms: _2488  and  _2489
REMARK  734  A    between atoms: _2488  and  _2491
REMARK  735  A    between atoms: _2491  and  _2492
REMARK  736  A    between atoms: _2491  and  _2493
REMARK  737  A    between atoms: _2501  and  _2502
REMARK  738  A    between atoms: _2502  and  _2503
REMARK  739  A    between atoms: _2508  and  _2509
REMARK  740  A    between atoms: _2509  and  _2510
REMARK  741  A    between atoms: _2509  and  _2512
REMARK  742  A    between atoms: _2512  and  _2513
REMARK  743  A    between atoms: _2513  and  _2514
REMARK  744  A    between atoms: _2524  and  _2525
REMARK  745  A    between atoms: _2537  and  _2538
REMARK  746  A    between atoms: _2538  and  _2539
REMARK  747  A    between atoms: _2538  and  _2541
REMARK  748  A    between atoms: _2541  and  _2542
REMARK  749  A    between atoms: _2542  and  _2543
REMARK  750  A    between atoms: _2543  and  _2544
REMARK  751  A    between atoms: _2554  and  _2555
REMARK  752  A    between atoms: _2555  and  _2556
REMARK  753  A    between atoms: _2561  and  _2562
REMARK  754  A    between atoms: _2562  and  _2563
REMARK  755  A    between atoms: _2562  and  _2565
REMARK  756  A    between atoms: _2565  and  _2566
REMARK  757  A    between atoms: _2566  and  _2567
REMARK  758  A    between atoms: _2567  and  _2568
REMARK  759  A    between atoms: _2585  and  _2586
REMARK  760  A    between atoms: _2586  and  _2587
REMARK  761  A    between atoms: _2592  and  _2593
REMARK  762  A    between atoms: _2593  and  _2594
REMARK  763  A    between atoms: _2593  and  _2596
REMARK  764  A    between atoms: _2596  and  _2597
REMARK  765  A    between atoms: _2596  and  _2598
REMARK  766  A    between atoms: _2606  and  _2607
REMARK  767  A    between atoms: _2607  and  _2608
REMARK  768  A    between atoms: _2607  and  _2610
REMARK  769  A    between atoms: _2610  and  _2611
REMARK  770  A    between atoms: _2611  and  _2612
REMARK  771  A    between atoms: _2612  and  _2613
REMARK  772  A    between atoms: _2613  and  _2614
REMARK  773  A    between atoms: _2628  and  _2629
REMARK  774  A    between atoms: _2629  and  _2630
REMARK  775  A    between atoms: _2629  and  _2632
REMARK  776  A    between atoms: _2632  and  _2633
REMARK  777  A    between atoms: _2632  and  _2634
REMARK  778  A    between atoms: _2644  and  _2645
REMARK  779  A    between atoms: _2645  and  _2646
REMARK  780  A    between atoms: _2645  and  _2648
REMARK  781  A    between atoms: _2648  and  _2649
REMARK  782  A    between atoms: _2648  and  _2650
REMARK  783  A    between atoms: _2649  and  _2651
REMARK  784  A    between atoms: _2663  and  _2664
REMARK  785  A    between atoms: _2664  and  _2665
REMARK  786  A    between atoms: _2664  and  _2667
REMARK  787  A    between atoms: _2667  and  _2668
REMARK  788  A    between atoms: _2668  and  _2669
REMARK  789  A    between atoms: _2668  and  _2670
REMARK  790  A    between atoms: _2682  and  _2683
REMARK  791  A    between atoms: _2683  and  _2684
REMARK  792  A    between atoms: _2683  and  _2686
REMARK  793  A    between atoms: _2686  and  _2687
REMARK  794  A    between atoms: _2699  and  _2700
REMARK  795  A    between atoms: _2700  and  _2701
REMARK  796  A    between atoms: _2700  and  _2703
REMARK  797  A    between atoms: _2703  and  _2704
REMARK  798  A    between atoms: _2704  and  _2705
REMARK  799  A    between atoms: _2704  and  _2706
REMARK  800  A    between atoms: _2718  and  _2719
REMARK  801  A    between atoms: _2719  and  _2720
REMARK  802  A    between atoms: _2719  and  _2722
REMARK  803  A    between atoms: _2722  and  _2723
REMARK  804  A    between atoms: _2723  and  _2724
REMARK  805  A    between atoms: _2724  and  _2725
REMARK  806  A    between atoms: _2725  and  _2726
REMARK  807  A    between atoms: _2740  and  _2741
REMARK  808  A    between atoms: _2741  and  _2742
REMARK  809  A    between atoms: _2741  and  _2744
REMARK  810  A    between atoms: _2744  and  _2745
REMARK  811  A    between atoms: _2745  and  _2746
REMARK  812  A    between atoms: _2755  and  _2756
REMARK  813  A    between atoms: _2756  and  _2757
REMARK  814  A    between atoms: _2756  and  _2759
REMARK  815  A    between atoms: _2759  and  _2760
REMARK  816  A    between atoms: _2767  and  _2768
REMARK  817  A    between atoms: _2768  and  _2769
REMARK  818  A    between atoms: _2768  and  _2771
REMARK  819  A    between atoms: _2771  and  _2772
REMARK  820  A    between atoms: _2772  and  _2773
REMARK  821  A    between atoms: _2784  and  _2785
REMARK  822  A    between atoms: _2785  and  _2786
REMARK  823  A    between atoms: _2785  and  _2788
REMARK  824  A    between atoms: _2788  and  _2789
REMARK  825  A    between atoms: _2788  and  _2790
REMARK  826  A    between atoms: _2798  and  _2799
REMARK  827  A    between atoms: _2799  and  _2800
REMARK  828  A    between atoms: _2799  and  _2802
REMARK  829  A    between atoms: _2802  and  _2803
REMARK  830  A    between atoms: _2803  and  _2804
REMARK  831  A    between atoms: _2813  and  _2814
REMARK  832  A    between atoms: _2814  and  _2815
REMARK  833  A    between atoms: _2814  and  _2817
REMARK  834  A    between atoms: _2817  and  _2818
REMARK  835  A    between atoms: _2823  and  _2824
REMARK  836  A    between atoms: _2834  and  _2835
REMARK  837  A    between atoms: _2835  and  _2838
REMARK  838  A    between atoms: _2838  and  _2839
REMARK  839  A    between atoms: _2839  and  _2840
REMARK  840  A    between atoms: _2839  and  _2841
REMARK  841  A    between atoms: _2884  and  _2885
REMARK  842  A    between atoms: _2884  and  _2887
REMARK  843  A    between atoms: _2887  and  _2888
REMARK  844  A    between atoms: _2888  and  _2889
REMARK  845  A    between atoms: _2899  and  _2900
REMARK  846  A    between atoms: _2900  and  _2901
REMARK  847  A    between atoms: _2900  and  _2903
REMARK  848  A    between atoms: _2903  and  _2904
REMARK  849  A    between atoms: _2904  and  _2905
REMARK  850  A    between atoms: _2905  and  _2906
REMARK  851  A    between atoms: _2923  and  _2924
REMARK  852  A    between atoms: _2924  and  _2925
REMARK  853  A    between atoms: _2924  and  _2927
REMARK  854  A    between atoms: _2927  and  _2928
REMARK  855  A    between atoms: _2928  and  _2929
REMARK  856  A    between atoms: _2929  and  _2930
REMARK  857  A    between atoms: _2947  and  _2948
REMARK  858  A    between atoms: _2948  and  _2949
REMARK  859  A    between atoms: _2948  and  _2951
REMARK  860  A    between atoms: _2951  and  _2952
REMARK  861  A    between atoms: _2951  and  _2953
REMARK  862  A    between atoms: _2952  and  _2954
REMARK  863  A    between atoms: _2966  and  _2967
REMARK  864  A    between atoms: _2967  and  _2968
REMARK  865  A    between atoms: _2967  and  _2970
REMARK  866  A    between atoms: _2970  and  _2971
REMARK  867  A    between atoms: _2971  and  _2972
REMARK  868  A    between atoms: _2972  and  _2973
REMARK  869  A    between atoms: _2973  and  _2974
REMARK  870  A    between atoms: _2988  and  _2989
REMARK  871  A    between atoms: _2989  and  _2990
REMARK  872  A    between atoms: _2989  and  _2992
REMARK  873  A    between atoms: _2992  and  _2993
REMARK  874  A    between atoms: _2993  and  _2994
REMARK  875  A    between atoms: _3003  and  _3004
REMARK  876  A    between atoms: _3004  and  _3005
REMARK  877  A    between atoms: _3004  and  _3007
REMARK  878  A    between atoms: _3007  and  _3008
REMARK  879  A    between atoms: _3007  and  _3009
REMARK  880  A    between atoms: _3008  and  _3010
REMARK  881  A    between atoms: _3022  and  _3023
REMARK  882  A    between atoms: _3023  and  _3024
REMARK  883  A    between atoms: _3023  and  _3026
REMARK  884  A    between atoms: _3026  and  _3027
REMARK  885  A    between atoms: _3026  and  _3028
REMARK  886  A    between atoms: _3038  and  _3039
REMARK  887  A    between atoms: _3039  and  _3040
REMARK  888  A    between atoms: _3039  and  _3042
REMARK  889  A    between atoms: _3042  and  _3043
REMARK  890  A    between atoms: _3043  and  _3044
REMARK  891  A    between atoms: _3044  and  _3045
REMARK  892  A    between atoms: _3045  and  _3046
REMARK  893  A    between atoms: _3060  and  _3061
REMARK  894  A    between atoms: _3061  and  _3062
REMARK  895  A    between atoms: _3061  and  _3064
REMARK  896  A    between atoms: _3064  and  _3065
REMARK  897  A    between atoms: _3065  and  _3066
REMARK  898  A    between atoms: _3066  and  _3067
REMARK  899  A    between atoms: _3067  and  _3068
REMARK  900  A    between atoms: _3082  and  _3083
REMARK  901  A    between atoms: _3083  and  _3084
REMARK  902  A    between atoms: _3083  and  _3086
REMARK  903  A    between atoms: _3086  and  _3087
REMARK  904  A    between atoms: _3099  and  _3100
REMARK  905  A    between atoms: _3100  and  _3101
REMARK  906  A    between atoms: _3100  and  _3103
REMARK  907  A    between atoms: _3103  and  _3104
REMARK  908  A    between atoms: _3110  and  _3111
REMARK  909  A    between atoms: _3111  and  _3112
REMARK  910  A    between atoms: _3111  and  _3114
REMARK  911  A    between atoms: _3114  and  _3115
REMARK  912  A    between atoms: _3115  and  _3116
REMARK  913  A    between atoms: _3127  and  _3128
REMARK  914  A    between atoms: _3128  and  _3129
REMARK  915  A    between atoms: _3128  and  _3131
REMARK  916  A    between atoms: _3131  and  _3132
REMARK  917  A    between atoms: _3147  and  _3148
REMARK  918  A    between atoms: _3148  and  _3149
REMARK  919  A    between atoms: _3148  and  _3151
REMARK  920  A    between atoms: _3151  and  _3152
REMARK  921  A    between atoms: _3151  and  _3153
REMARK  922  A    between atoms: _3152  and  _3154
REMARK  923  A    between atoms: _3166  and  _3167
REMARK  924  A    between atoms: _3167  and  _3168
REMARK  925  A    between atoms: _3173  and  _3174
REMARK  926  A    between atoms: _3174  and  _3175
REMARK  927  A    between atoms: _3174  and  _3177
REMARK  928  A    between atoms: _3177  and  _3178
REMARK  929  A    between atoms: _3183  and  _3184
REMARK  930  A    between atoms: _3195  and  _3196
REMARK  931  A    between atoms: _3208  and  _3209
REMARK  932  A    between atoms: _3209  and  _3210
REMARK  933  A    between atoms: _3209  and  _3212
REMARK  934  A    between atoms: _3212  and  _3213
REMARK  935  A    between atoms: _3212  and  _3214
REMARK  936  A    between atoms: _3213  and  _3215
REMARK  937  A    between atoms: _3227  and  _3228
REMARK  938  A    between atoms: _3228  and  _3229
REMARK  939  A    between atoms: _3228  and  _3231
REMARK  940  A    between atoms: _3231  and  _3232
REMARK  941  A    between atoms: _3231  and  _3233
REMARK  942  A    between atoms: _3241  and  _3242
REMARK  943  A    between atoms: _3242  and  _3243
REMARK  944  A    between atoms: _3242  and  _3245
REMARK  945  A    between atoms: _3245  and  _3246
REMARK  946  A    between atoms: _3246  and  _3247
REMARK  947  A    between atoms: _3246  and  _3248
REMARK  948  A    between atoms: _3260  and  _3261
REMARK  949  A    between atoms: _3261  and  _3262
REMARK  950  A    between atoms: _3261  and  _3264
REMARK  951  A    between atoms: _3264  and  _3265
REMARK  952  A    between atoms: _3280  and  _3281
REMARK  953  A    between atoms: _3281  and  _3282
REMARK  954  A    between atoms: _3281  and  _3284
REMARK  955  A    between atoms: _3284  and  _3285
REMARK  956  A    between atoms: _3284  and  _3286
REMARK  957  A    between atoms: _3296  and  _3297
REMARK  958  A    between atoms: _3297  and  _3298
REMARK  959  A    between atoms: _3297  and  _3300
REMARK  960  A    between atoms: _3300  and  _3301
REMARK  961  A    between atoms: _3301  and  _3302
REMARK                            x       y       z     vdW  Elec       q    Type
REMARK                         _______ _______ _______ _____ _____    ______ ____
ROOT
ATOM      1  S   UNL     1       9.168  41.265  43.380  0.00  0.00    -0.182 S 
ATOM      2  H   UNL     1       8.680  40.764  43.166  0.00  0.00    +0.101 HD
ATOM      3  C   UNL     1       9.940  42.200  42.122  0.00  0.00    +0.080 C 
ENDROOT
TORSDOF 0
REMARK  Name = /Users/mlugowska/PhD/ML_residence_time_prediction/protein_files/5J20_protein.pdb
REMARK  961 active torsions:
REMARK  status: ('A' for Active; 'I' for Inactive)
REMARK    1  A    between atoms: _2  and  _3
REMARK    2  A    between atoms: _2  and  _5
REMARK    3  A    between atoms: _10  and  _11
REMARK    4  A    between atoms: _11  and  _12
REMARK    5  A    between atoms: _11  and  _14
REMARK    6  A    between atoms: _14  and  _15
REMARK    7  A    between atoms: _14  and  _16
REMARK    8  A    between atoms: _26  and  _27
REMARK    9  A    between atoms: _27  and  _28
REMARK   10  A    between atoms: _27  and  _30
REMARK   11  A    between atoms: _30  and  _31
REMARK   12  A    between atoms: _31  and  _32
REMARK   13  A    between atoms: _41  and  _42
REMARK   14  A    between atoms: _42  and  _43
REMARK   15  A    between atoms: _42  and  _45
REMARK   16  A    between atoms: _45  and  _46
REMARK   17  A    between atoms: _45  and  _47
REMARK   18  A    between atoms: _55  and  _56
REMARK   19  A    between atoms: _56  and  _57
REMARK   20  A    between atoms: _56  and  _59
REMARK   21  A    between atoms: _59  and  _60
REMARK   22  A    between atoms: _75  and  _76
REMARK   23  A    between atoms: _76  and  _77
REMARK   24  A    between atoms: _76  and  _79
REMARK   25  A    between atoms: _85  and  _86
REMARK   26  A    between atoms: _86  and  _87
REMARK   27  A    between atoms: _86  and  _89
REMARK   28  A    between atoms: _89  and  _90
REMARK   29  A    between atoms: _105  and  _106
REMARK   30  A    between atoms: _106  and  _107
REMARK   31  A    between atoms: _106  and  _109
REMARK   32  A    between atoms: _109  and  _110
REMARK   33  A    between atoms: _110  and  _111
REMARK   34  A    between atoms: _122  and  _123
REMARK   35  A    between atoms: _123  and  _124
REMARK   36  A    between atoms: _123  and  _126
REMARK   37  A    between atoms: _132  and  _133
REMARK   38  A    between atoms: _133  and  _134
REMARK   39  A    between atoms: _133  and  _136
REMARK   40  A    between atoms: _136  and  _137
REMARK   41  A    between atoms: _137  and  _138
REMARK   42  A    between atoms: _147  and  _148
REMARK   43  A    between atoms: _148  and  _149
REMARK   44  A    between atoms: _148  and  _151
REMARK   45  A    between atoms: _151  and  _152
REMARK   46  A    between atoms: _151  and  _153
REMARK   47  A    between atoms: _152  and  _154
REMARK   48  A    between atoms: _166  and  _167
REMARK   49  A    between atoms: _167  and  _168
REMARK   50  A    between atoms: _167  and  _170
REMARK   51  A    between atoms: _176  and  _177
REMARK   52  A    between atoms: _177  and  _178
REMARK   53  A    between atoms: _177  and  _180
REMARK   54  A    between atoms: _180  and  _181
REMARK   55  A    between atoms: _181  and  _182
REMARK   56  A    between atoms: _193  and  _194
REMARK   57  A    between atoms: _194  and  _195
REMARK   58  A    between atoms: _194  and  _197
REMARK   59  A    between atoms: _197  and  _198
REMARK   60  A    between atoms: _198  and  _199
REMARK   61  A    between atoms: _198  and  _200
REMARK   62  A    between atoms: _212  and  _213
REMARK   63  A    between atoms: _213  and  _214
REMARK   64  A    between atoms: _213  and  _216
REMARK   65  A    between atoms: _216  and  _217
REMARK   66  A    between atoms: _217  and  _218
REMARK   67  A    between atoms: _218  and  _219
REMARK   68  A    between atoms: _229  and  _230
REMARK   69  A    between atoms: _230  and  _231
REMARK   70  A    between atoms: _230  and  _233
REMARK   71  A    between atoms: _233  and  _234
REMARK   72  A    between atoms: _240  and  _241
REMARK   73  A    between atoms: _241  and  _242
REMARK   74  A    between atoms: _241  and  _244
REMARK   75  A    between atoms: _244  and  _245
REMARK   76  A    between atoms: _245  and  _246
REMARK   77  A    between atoms: _245  and  _247
REMARK   78  A    between atoms: _259  and  _260
REMARK   79  A    between atoms: _260  and  _261
REMARK   80  A    between atoms: _260  and  _263
REMARK   81  A    between atoms: _263  and  _264
REMARK   82  A    between atoms: _263  and  _265
REMARK   83  A    between atoms: _264  and  _266
REMARK   84  A    between atoms: _278  and  _279
REMARK   85  A    between atoms: _279  and  _280
REMARK   86  A    between atoms: _279  and  _282
REMARK   87  A    between atoms: _282  and  _283
REMARK   88  A    between atoms: _282  and  _284
REMARK   89  A    between atoms: _283  and  _285
REMARK   90  A    between atoms: _297  and  _298
REMARK   91  A    between atoms: _298  and  _299
REMARK   92  A    between atoms: _298  and  _301
REMARK   93  A    between atoms: _301  and  _302
REMARK   94  A    between atoms: _311  and  _312
REMARK   95  A    between atoms: _312  and  _313
REMARK   96  A    between atoms: _312  and  _315
REMARK   97  A    between atoms: _315  and  _316
REMARK   98  A    between atoms: _315  and  _317
REMARK   99  A    between atoms: _325  and  _326
REMARK  100  A    between atoms: _326  and  _327
REMARK  101  A    between atoms: _326  and  _329
REMARK  102  A    between atoms: _329  and  _330
REMARK  103  A    between atoms: _345  and  _346
REMARK  104  A    between atoms: _346  and  _347
REMARK  105  A    between atoms: _346  and  _349
REMARK  106  A    between atoms: _349  and  _350
REMARK  107  A    between atoms: _355  and  _356
REMARK  108  A    between atoms: _366  and  _367
REMARK  109  A    between atoms: _367  and  _368
REMARK  110  A    between atoms: _367  and  _370
REMARK  111  A    between atoms: _370  and  _371
REMARK  112  A    between atoms: _377  and  _378
REMARK  113  A    between atoms: _378  and  _379
REMARK  114  A    between atoms: _378  and  _381
REMARK  115  A    between atoms: _381  and  _382
REMARK  116  A    between atoms: _391  and  _392
REMARK  117  A    between atoms: _392  and  _393
REMARK  118  A    between atoms: _392  and  _395
REMARK  119  A    between atoms: _395  and  _396
REMARK  120  A    between atoms: _396  and  _397
REMARK  121  A    between atoms: _397  and  _398
REMARK  122  A    between atoms: _398  and  _399
REMARK  123  A    between atoms: _413  and  _414
REMARK  124  A    between atoms: _414  and  _415
REMARK  125  A    between atoms: _414  and  _417
REMARK  126  A    between atoms: _417  and  _418
REMARK  127  A    between atoms: _418  and  _419
REMARK  128  A    between atoms: _428  and  _429
REMARK  129  A    between atoms: _429  and  _430
REMARK  130  A    between atoms: _429  and  _432
REMARK  131  A    between atoms: _432  and  _433
REMARK  132  A    between atoms: _432  and  _434
REMARK  133  A    between atoms: _433  and  _435
REMARK  134  A    between atoms: _447  and  _448
REMARK  135  A    between atoms: _448  and  _449
REMARK  136  A    between atoms: _448  and  _451
REMARK  137  A    between atoms: _451  and  _452
REMARK  138  A    between atoms: _467  and  _468
REMARK  139  A    between atoms: _468  and  _469
REMARK  140  A    between atoms: _468  and  _471
REMARK  141  A    between atoms: _471  and  _472
REMARK  142  A    between atoms: _472  and  _473
REMARK  143  A    between atoms: _472  and  _474
REMARK  144  A    between atoms: _486  and  _487
REMARK  145  A    between atoms: _487  and  _488
REMARK  146  A    between atoms: _487  and  _490
REMARK  147  A    between atoms: _490  and  _491
REMARK  148  A    between atoms: _491  and  _492
REMARK  149  A    between atoms: _492  and  _493
REMARK  150  A    between atoms: _510  and  _511
REMARK  151  A    between atoms: _511  and  _512
REMARK  152  A    between atoms: _511  and  _514
REMARK  153  A    between atoms: _514  and  _515
REMARK  154  A    between atoms: _515  and  _516
REMARK  155  A    between atoms: _525  and  _526
REMARK  156  A    between atoms: _526  and  _527
REMARK  157  A    between atoms: _526  and  _529
REMARK  158  A    between atoms: _529  and  _530
REMARK  159  A    between atoms: _530  and  _531
REMARK  160  A    between atoms: _530  and  _532
REMARK  161  A    between atoms: _544  and  _545
REMARK  162  A    between atoms: _545  and  _546
REMARK  163  A    between atoms: _545  and  _548
REMARK  164  A    between atoms: _548  and  _549
REMARK  165  A    between atoms: _548  and  _550
REMARK  166  A    between atoms: _549  and  _551
REMARK  167  A    between atoms: _563  and  _564
REMARK  168  A    between atoms: _564  and  _565
REMARK  169  A    between atoms: _564  and  _567
REMARK  170  A    between atoms: _567  and  _568
REMARK  171  A    between atoms: _574  and  _575
REMARK  172  A    between atoms: _575  and  _576
REMARK  173  A    between atoms: _575  and  _578
REMARK  174  A    between atoms: _578  and  _579
REMARK  175  A    between atoms: _588  and  _589
REMARK  176  A    between atoms: _589  and  _590
REMARK  177  A    between atoms: _589  and  _592
REMARK  178  A    between atoms: _592  and  _593
REMARK  179  A    between atoms: _599  and  _600
REMARK  180  A    between atoms: _600  and  _601
REMARK  181  A    between atoms: _600  and  _603
REMARK  182  A    between atoms: _603  and  _604
REMARK  183  A    between atoms: _610  and  _611
REMARK  184  A    between atoms: _611  and  _612
REMARK  185  A    between atoms: _611  and  _614
REMARK  186  A    between atoms: _614  and  _615
REMARK  187  A    between atoms: _622  and  _623
REMARK  188  A    between atoms: _623  and  _624
REMARK  189  A    between atoms: _623  and  _626
REMARK  190  A    between atoms: _632  and  _633
REMARK  191  A    between atoms: _633  and  _634
REMARK  192  A    between atoms: _633  and  _636
REMARK  193  A    between atoms: _636  and  _637
REMARK  194  A    between atoms: _637  and  _638
REMARK  195  A    between atoms: _637  and  _639
REMARK  196  A    between atoms: _651  and  _652
REMARK  197  A    between atoms: _652  and  _653
REMARK  198  A    between atoms: _652  and  _655
REMARK  199  A    between atoms: _655  and  _656
REMARK  200  A    between atoms: _663  and  _664
REMARK  201  A    between atoms: _664  and  _665
REMARK  202  A    between atoms: _664  and  _667
REMARK  203  A    between atoms: _667  and  _668
REMARK  204  A    between atoms: _668  and  _669
REMARK  205  A    between atoms: _669  and  _670
REMARK  206  A    between atoms: _670  and  _671
REMARK  207  A    between atoms: _685  and  _686
REMARK  208  A    between atoms: _686  and  _687
REMARK  209  A    between atoms: _686  and  _689
REMARK  210  A    between atoms: _689  and  _690
REMARK  211  A    between atoms: _689  and  _691
REMARK  212  A    between atoms: _690  and  _692
REMARK  213  A    between atoms: _704  and  _705
REMARK  214  A    between atoms: _705  and  _706
REMARK  215  A    between atoms: _705  and  _708
REMARK  216  A    between atoms: _708  and  _709
REMARK  217  A    between atoms: _709  and  _710
REMARK  218  A    between atoms: _710  and  _711
REMARK  219  A    between atoms: _728  and  _729
REMARK  220  A    between atoms: _729  and  _730
REMARK  221  A    between atoms: _729  and  _732
REMARK  222  A    between atoms: _732  and  _733
REMARK  223  A    between atoms: _738  and  _739
REMARK  224  A    between atoms: _749  and  _750
REMARK  225  A    between atoms: _750  and  _751
REMARK  226  A    between atoms: _750  and  _753
REMARK  227  A    between atoms: _753  and  _754
REMARK  228  A    between atoms: _754  and  _755
REMARK  229  A    between atoms: _764  and  _765
REMARK  230  A    between atoms: _765  and  _766
REMARK  231  A    between atoms: _765  and  _768
REMARK  232  A    between atoms: _772  and  _773
REMARK  233  A    between atoms: _773  and  _774
REMARK  234  A    between atoms: _773  and  _776
REMARK  235  A    between atoms: _776  and  _777
REMARK  236  A    between atoms: _777  and  _778
REMARK  237  A    between atoms: _777  and  _779
REMARK  238  A    between atoms: _791  and  _792
REMARK  239  A    between atoms: _792  and  _793
REMARK  240  A    between atoms: _792  and  _795
REMARK  241  A    between atoms: _795  and  _796
REMARK  242  A    between atoms: _795  and  _797
REMARK  243  A    between atoms: _805  and  _806
REMARK  244  A    between atoms: _806  and  _807
REMARK  245  A    between atoms: _806  and  _809
REMARK  246  A    between atoms: _809  and  _810
REMARK  247  A    between atoms: _818  and  _819
REMARK  248  A    between atoms: _831  and  _832
REMARK  249  A    between atoms: _832  and  _833
REMARK  250  A    between atoms: _832  and  _835
REMARK  251  A    between atoms: _835  and  _836
REMARK  252  A    between atoms: _842  and  _843
REMARK  253  A    between atoms: _843  and  _844
REMARK  254  A    between atoms: _843  and  _846
REMARK  255  A    between atoms: _846  and  _847
REMARK  256  A    between atoms: _847  and  _848
REMARK  257  A    between atoms: _848  and  _849
REMARK  258  A    between atoms: _849  and  _850
REMARK  259  A    between atoms: _864  and  _865
REMARK  260  A    between atoms: _865  and  _866
REMARK  261  A    between atoms: _865  and  _868
REMARK  262  A    between atoms: _868  and  _869
REMARK  263  A    between atoms: _869  and  _870
REMARK  264  A    between atoms: _869  and  _871
REMARK  265  A    between atoms: _883  and  _884
REMARK  266  A    between atoms: _884  and  _885
REMARK  267  A    between atoms: _884  and  _887
REMARK  268  A    between atoms: _887  and  _888
REMARK  269  A    between atoms: _895  and  _896
REMARK  270  A    between atoms: _896  and  _897
REMARK  271  A    between atoms: _896  and  _899
REMARK  272  A    between atoms: _899  and  _900
REMARK  273  A    between atoms: _906  and  _907
REMARK  274  A    between atoms: _907  and  _908
REMARK  275  A    between atoms: _913  and  _914
REMARK  276  A    between atoms: _914  and  _915
REMARK  277  A    between atoms: _914  and  _917
REMARK  278  A    between atoms: _917  and  _918
REMARK  279  A    between atoms: _918  and  _919
REMARK  280  A    between atoms: _919  and  _920
REMARK  281  A    between atoms: _920  and  _921
REMARK  282  A    between atoms: _935  and  _936
REMARK  283  A    between atoms: _936  and  _937
REMARK  284  A    between atoms: _936  and  _939
REMARK  285  A    between atoms: _939  and  _940
REMARK  286  A    between atoms: _940  and  _941
REMARK  287  A    between atoms: _950  and  _951
REMARK  288  A    between atoms: _951  and  _952
REMARK  289  A    between atoms: _951  and  _954
REMARK  290  A    between atoms: _954  and  _955
REMARK  291  A    between atoms: _955  and  _956
REMARK  292  A    between atoms: _955  and  _957
REMARK  293  A    between atoms: _969  and  _970
REMARK  294  A    between atoms: _970  and  _971
REMARK  295  A    between atoms: _970  and  _973
REMARK  296  A    between atoms: _973  and  _974
REMARK  297  A    between atoms: _986  and  _987
REMARK  298  A    between atoms: _987  and  _988
REMARK  299  A    between atoms: _987  and  _990
REMARK  300  A    between atoms: _990  and  _991
REMARK  301  A    between atoms: _990  and  _992
REMARK  302  A    between atoms: _991  and  _993
REMARK  303  A    between atoms: _1005  and  _1006
REMARK  304  A    between atoms: _1006  and  _1007
REMARK  305  A    between atoms: _1006  and  _1009
REMARK  306  A    between atoms: _1009  and  _1010
REMARK  307  A    between atoms: _1019  and  _1020
REMARK  308  A    between atoms: _1020  and  _1021
REMARK  309  A    between atoms: _1020  and  _1023
REMARK  310  A    between atoms: _1023  and  _1024
REMARK  311  A    between atoms: _1024  and  _1025
REMARK  312  A    between atoms: _1024  and  _1026
REMARK  313  A    between atoms: _1038  and  _1039
REMARK  314  A    between atoms: _1039  and  _1040
REMARK  315  A    between atoms: _1039  and  _1042
REMARK  316  A    between atoms: _1042  and  _1043
REMARK  317  A    between atoms: _1042  and  _1044
REMARK  318  A    between atoms: _1043  and  _1045
REMARK  319  A    between atoms: _1058  and  _1059
REMARK  320  A    between atoms: _1071  and  _1072
REMARK  321  A    between atoms: _1072  and  _1073
REMARK  322  A    between atoms: _1072  and  _1075
REMARK  323  A    between atoms: _1075  and  _1076
REMARK  324  A    between atoms: _1085  and  _1086
REMARK  325  A    between atoms: _1086  and  _1087
REMARK  326  A    between atoms: _1086  and  _1089
REMARK  327  A    between atoms: _1089  and  _1090
REMARK  328  A    between atoms: _1090  and  _1091
REMARK  329  A    between atoms: _1091  and  _1092
REMARK  330  A    between atoms: _1092  and  _1093
REMARK  331  A    between atoms: _1107  and  _1108
REMARK  332  A    between atoms: _1108  and  _1109
REMARK  333  A    between atoms: _1108  and  _1111
REMARK  334  A    between atoms: _1111  and  _1112
REMARK  335  A    between atoms: _1112  and  _1113
REMARK  336  A    between atoms: _1124  and  _1125
REMARK  337  A    between atoms: _1125  and  _1126
REMARK  338  A    between atoms: _1125  and  _1128
REMARK  339  A    between atoms: _1128  and  _1129
REMARK  340  A    between atoms: _1136  and  _1137
REMARK  341  A    between atoms: _1137  and  _1138
REMARK  342  A    between atoms: _1137  and  _1140
REMARK  343  A    between atoms: _1140  and  _1141
REMARK  344  A    between atoms: _1141  and  _1142
REMARK  345  A    between atoms: _1142  and  _1143
REMARK  346  A    between atoms: _1160  and  _1161
REMARK  347  A    between atoms: _1161  and  _1162
REMARK  348  A    between atoms: _1161  and  _1164
REMARK  349  A    between atoms: _1164  and  _1165
REMARK  350  A    between atoms: _1164  and  _1166
REMARK  351  A    between atoms: _1174  and  _1175
REMARK  352  A    between atoms: _1175  and  _1176
REMARK  353  A    between atoms: _1175  and  _1178
REMARK  354  A    between atoms: _1178  and  _1179
REMARK  355  A    between atoms: _1179  and  _1180
REMARK  356  A    between atoms: _1179  and  _1181
REMARK  357  A    between atoms: _1193  and  _1194
REMARK  358  A    between atoms: _1194  and  _1195
REMARK  359  A    between atoms: _1194  and  _1197
REMARK  360  A    between atoms: _1197  and  _1198
REMARK  361  A    between atoms: _1197  and  _1199
REMARK  362  A    between atoms: _1207  and  _1208
REMARK  363  A    between atoms: _1208  and  _1209
REMARK  364  A    between atoms: _1208  and  _1211
REMARK  365  A    between atoms: _1211  and  _1212
REMARK  366  A    between atoms: _1211  and  _1213
REMARK  367  A    between atoms: _1212  and  _1214
REMARK  368  A    between atoms: _1226  and  _1227
REMARK  369  A    between atoms: _1227  and  _1228
REMARK  370  A    between atoms: _1227  and  _1230
REMARK  371  A    between atoms: _1230  and  _1231
REMARK  372  A    between atoms: _1230  and  _1232
REMARK  373  A    between atoms: _1242  and  _1243
REMARK  374  A    between atoms: _1243  and  _1244
REMARK  375  A    between atoms: _1243  and  _1246
REMARK  376  A    between atoms: _1246  and  _1247
REMARK  377  A    between atoms: _1254  and  _1255
REMARK  378  A    between atoms: _1255  and  _1256
REMARK  379  A    between atoms: _1255  and  _1258
REMARK  380  A    between atoms: _1258  and  _1259
REMARK  381  A    between atoms: _1258  and  _1260
REMARK  382  A    between atoms: _1268  and  _1269
REMARK  383  A    between atoms: _1269  and  _1270
REMARK  384  A    between atoms: _1275  and  _1276
REMARK  385  A    between atoms: _1276  and  _1277
REMARK  386  A    between atoms: _1276  and  _1279
REMARK  387  A    between atoms: _1279  and  _1280
REMARK  388  A    between atoms: _1279  and  _1281
REMARK  389  A    between atoms: _1280  and  _1282
REMARK  390  A    between atoms: _1294  and  _1295
REMARK  391  A    between atoms: _1295  and  _1296
REMARK  392  A    between atoms: _1301  and  _1302
REMARK  393  A    between atoms: _1302  and  _1303
REMARK  394  A    between atoms: _1302  and  _1305
REMARK  395  A    between atoms: _1305  and  _1306
REMARK  396  A    between atoms: _1306  and  _1307
REMARK  397  A    between atoms: _1307  and  _1308
REMARK  398  A    between atoms: _1318  and  _1319
REMARK  399  A    between atoms: _1319  and  _1320
REMARK  400  A    between atoms: _1319  and  _1322
REMARK  401  A    between atoms: _1322  and  _1323
REMARK  402  A    between atoms: _1322  and  _1324
REMARK  403  A    between atoms: _1332  and  _1333
REMARK  404  A    between atoms: _1333  and  _1334
REMARK  405  A    between atoms: _1333  and  _1336
REMARK  406  A    between atoms: _1336  and  _1337
REMARK  407  A    between atoms: _1337  and  _1338
REMARK  408  A    between atoms: _1338  and  _1339
REMARK  409  A    between atoms: _1339  and  _1340
REMARK  410  A    between atoms: _1354  and  _1355
REMARK  411  A    between atoms: _1355  and  _1356
REMARK  412  A    between atoms: _1355  and  _1358
REMARK  413  A    between atoms: _1364  and  _1365
REMARK  414  A    between atoms: _1365  and  _1366
REMARK  415  A    between atoms: _1365  and  _1368
REMARK  416  A    between atoms: _1368  and  _1369
REMARK  417  A    between atoms: _1376  and  _1377
REMARK  418  A    between atoms: _1377  and  _1378
REMARK  419  A    between atoms: _1377  and  _1380
REMARK  420  A    between atoms: _1380  and  _1381
REMARK  421  A    between atoms: _1381  and  _1382
REMARK  422  A    between atoms: _1381  and  _1383
REMARK  423  A    between atoms: _1395  and  _1396
REMARK  424  A    between atoms: _1396  and  _1399
REMARK  425  A    between atoms: _1399  and  _1400
REMARK  426  A    between atoms: _1399  and  _1401
REMARK  427  A    between atoms: _1400  and  _1402
REMARK  428  A    between atoms: _1422  and  _1425
REMARK  429  A    between atoms: _1424  and  _1428
REMARK  430  A    between atoms: _1425  and  _1427
REMARK  431  A    between atoms: _1443  and  _1444
REMARK  432  A    between atoms: _1443  and  _1446
REMARK  433  A    between atoms: _1446  and  _1447
REMARK  434  A    between atoms: _1457  and  _1458
REMARK  435  A    between atoms: _1458  and  _1459
REMARK  436  A    between atoms: _1458  and  _1461
REMARK  437  A    between atoms: _1461  and  _1462
REMARK  438  A    between atoms: _1462  and  _1463
REMARK  439  A    between atoms: _1462  and  _1464
REMARK  440  A    between atoms: _1476  and  _1477
REMARK  441  A    between atoms: _1477  and  _1478
REMARK  442  A    between atoms: _1483  and  _1484
REMARK  443  A    between atoms: _1484  and  _1485
REMARK  444  A    between atoms: _1484  and  _1487
REMARK  445  A    between atoms: _1487  and  _1488
REMARK  446  A    between atoms: _1487  and  _1489
REMARK  447  A    between atoms: _1497  and  _1498
REMARK  448  A    between atoms: _1498  and  _1499
REMARK  449  A    between atoms: _1498  and  _1501
REMARK  450  A    between atoms: _1501  and  _1502
REMARK  451  A    between atoms: _1501  and  _1503
REMARK  452  A    between atoms: _1502  and  _1504
REMARK  453  A    between atoms: _1516  and  _1517
REMARK  454  A    between atoms: _1517  and  _1518
REMARK  455  A    between atoms: _1517  and  _1520
REMARK  456  A    between atoms: _1526  and  _1527
REMARK  457  A    between atoms: _1527  and  _1528
REMARK  458  A    between atoms: _1527  and  _1530
REMARK  459  A    between atoms: _1530  and  _1531
REMARK  460  A    between atoms: _1531  and  _1532
REMARK  461  A    between atoms: _1532  and  _1533
REMARK  462  A    between atoms: _1533  and  _1534
REMARK  463  A    between atoms: _1548  and  _1549
REMARK  464  A    between atoms: _1549  and  _1550
REMARK  465  A    between atoms: _1549  and  _1552
REMARK  466  A    between atoms: _1552  and  _1553
REMARK  467  A    between atoms: _1559  and  _1560
REMARK  468  A    between atoms: _1560  and  _1561
REMARK  469  A    between atoms: _1566  and  _1567
REMARK  470  A    between atoms: _1567  and  _1568
REMARK  471  A    between atoms: _1567  and  _1570
REMARK  472  A    between atoms: _1570  and  _1571
REMARK  473  A    between atoms: _1570  and  _1572
REMARK  474  A    between atoms: _1580  and  _1581
REMARK  475  A    between atoms: _1581  and  _1582
REMARK  476  A    between atoms: _1581  and  _1584
REMARK  477  A    between atoms: _1584  and  _1585
REMARK  478  A    between atoms: _1585  and  _1586
REMARK  479  A    between atoms: _1586  and  _1587
REMARK  480  A    between atoms: _1587  and  _1588
REMARK  481  A    between atoms: _1602  and  _1603
REMARK  482  A    between atoms: _1603  and  _1604
REMARK  483  A    between atoms: _1603  and  _1606
REMARK  484  A    between atoms: _1612  and  _1613
REMARK  485  A    between atoms: _1613  and  _1614
REMARK  486  A    between atoms: _1613  and  _1616
REMARK  487  A    between atoms: _1616  and  _1617
REMARK  488  A    between atoms: _1632  and  _1633
REMARK  489  A    between atoms: _1633  and  _1634
REMARK  490  A    between atoms: _1633  and  _1636
REMARK  491  A    between atoms: _1636  and  _1637
REMARK  492  A    between atoms: _1637  and  _1638
REMARK  493  A    between atoms: _1638  and  _1639
REMARK  494  A    between atoms: _1649  and  _1650
REMARK  495  A    between atoms: _1650  and  _1651
REMARK  496  A    between atoms: _1650  and  _1653
REMARK  497  A    between atoms: _1653  and  _1654
REMARK  498  A    between atoms: _1654  and  _1655
REMARK  499  A    between atoms: _1664  and  _1665
REMARK  500  A    between atoms: _1665  and  _1666
REMARK  501  A    between atoms: _1665  and  _1668
REMARK  502  A    between atoms: _1674  and  _1675
REMARK  503  A    between atoms: _1675  and  _1676
REMARK  504  A    between atoms: _1675  and  _1678
REMARK  505  A    between atoms: _1678  and  _1679
REMARK  506  A    between atoms: _1679  and  _1680
REMARK  507  A    between atoms: _1679  and  _1681
REMARK  508  A    between atoms: _1693  and  _1694
REMARK  509  A    between atoms: _1694  and  _1695
REMARK  510  A    between atoms: _1694  and  _1697
REMARK  511  A    between atoms: _1697  and  _1698
REMARK  512  A    between atoms: _1698  and  _1699
REMARK  513  A    between atoms: _1710  and  _1711
REMARK  514  A    between atoms: _1711  and  _1712
REMARK  515  A    between atoms: _1711  and  _1714
REMARK  516  A    between atoms: _1720  and  _1721
REMARK  517  A    between atoms: _1721  and  _1722
REMARK  518  A    between atoms: _1727  and  _1728
REMARK  519  A    between atoms: _1728  and  _1729
REMARK  520  A    between atoms: _1728  and  _1731
REMARK  521  A    between atoms: _1737  and  _1738
REMARK  522  A    between atoms: _1738  and  _1739
REMARK  523  A    between atoms: _1738  and  _1741
REMARK  524  A    between atoms: _1741  and  _1742
REMARK  525  A    between atoms: _1749  and  _1750
REMARK  526  A    between atoms: _1750  and  _1751
REMARK  527  A    between atoms: _1750  and  _1753
REMARK  528  A    between atoms: _1753  and  _1754
REMARK  529  A    between atoms: _1753  and  _1755
REMARK  530  A    between atoms: _1754  and  _1756
REMARK  531  A    between atoms: _1768  and  _1769
REMARK  532  A    between atoms: _1769  and  _1772
REMARK  533  A    between atoms: _1772  and  _1773
REMARK  534  A    between atoms: _1791  and  _1793
REMARK  535  A    between atoms: _1792  and  _1794
REMARK  536  A    between atoms: _1814  and  _1815
REMARK  537  A    between atoms: _1814  and  _1817
REMARK  538  A    between atoms: _1817  and  _1818
REMARK  539  A    between atoms: _1817  and  _1819
REMARK  540  A    between atoms: _1818  and  _1820
REMARK  541  A    between atoms: _1833  and  _1834
REMARK  542  A    between atoms: _1834  and  _1835
REMARK  543  A    between atoms: _1840  and  _1841
REMARK  544  A    between atoms: _1841  and  _1842
REMARK  545  A    between atoms: _1841  and  _1844
REMARK  546  A    between atoms: _1844  and  _1845
REMARK  547  A    between atoms: _1845  and  _1846
REMARK  548  A    between atoms: _1857  and  _1858
REMARK  549  A    between atoms: _1858  and  _1859
REMARK  550  A    between atoms: _1858  and  _1861
REMARK  551  A    between atoms: _1861  and  _1862
REMARK  552  A    between atoms: _1877  and  _1878
REMARK  553  A    between atoms: _1878  and  _1879
REMARK  554  A    between atoms: _1884  and  _1885
REMARK  555  A    between atoms: _1885  and  _1886
REMARK  556  A    between atoms: _1885  and  _1888
REMARK  557  A    between atoms: _1888  and  _1889
REMARK  558  A    between atoms: _1888  and  _1890
REMARK  559  A    between atoms: _1900  and  _1901
REMARK  560  A    between atoms: _1901  and  _1902
REMARK  561  A    between atoms: _1907  and  _1908
REMARK  562  A    between atoms: _1908  and  _1909
REMARK  563  A    between atoms: _1908  and  _1911
REMARK  564  A    between atoms: _1911  and  _1912
REMARK  565  A    between atoms: _1927  and  _1928
REMARK  566  A    between atoms: _1928  and  _1929
REMARK  567  A    between atoms: _1928  and  _1931
REMARK  568  A    between atoms: _1931  and  _1932
REMARK  569  A    between atoms: _1937  and  _1938
REMARK  570  A    between atoms: _1948  and  _1949
REMARK  571  A    between atoms: _1949  and  _1950
REMARK  572  A    between atoms: _1949  and  _1952
REMARK  573  A    between atoms: _1952  and  _1953
REMARK  574  A    between atoms: _1959  and  _1960
REMARK  575  A    between atoms: _1960  and  _1961
REMARK  576  A    between atoms: _1960  and  _1963
REMARK  577  A    between atoms: _1969  and  _1970
REMARK  578  A    between atoms: _1970  and  _1971
REMARK  579  A    between atoms: _1970  and  _1973
REMARK  580  A    between atoms: _1973  and  _1974
REMARK  581  A    between atoms: _1979  and  _1980
REMARK  582  A    between atoms: _1990  and  _1991
REMARK  583  A    between atoms: _1991  and  _1992
REMARK  584  A    between atoms: _1991  and  _1994
REMARK  585  A    between atoms: _1994  and  _1995
REMARK  586  A    between atoms: _1995  and  _1996
REMARK  587  A    between atoms: _1995  and  _1997
REMARK  588  A    between atoms: _2009  and  _2010
REMARK  589  A    between atoms: _2010  and  _2011
REMARK  590  A    between atoms: _2010  and  _2013
REMARK  591  A    between atoms: _2013  and  _2014
REMARK  592  A    between atoms: _2013  and  _2015
REMARK  593  A    between atoms: _2025  and  _2026
REMARK  594  A    between atoms: _2026  and  _2027
REMARK  595  A    between atoms: _2026  and  _2029
REMARK  596  A    between atoms: _2035  and  _2036
REMARK  597  A    between atoms: _2036  and  _2037
REMARK  598  A    between atoms: _2036  and  _2039
REMARK  599  A    between atoms: _2039  and  _2040
REMARK  600  A    between atoms: _2040  and  _2041
REMARK  601  A    between atoms: _2050  and  _2051
REMARK  602  A    between atoms: _2051  and  _2052
REMARK  603  A    between atoms: _2051  and  _2054
REMARK  604  A    between atoms: _2054  and  _2055
REMARK  605  A    between atoms: _2055  and  _2056
REMARK  606  A    between atoms: _2056  and  _2057
REMARK  607  A    between atoms: _2057  and  _2058
REMARK  608  A    between atoms: _2072  and  _2073
REMARK  609  A    between atoms: _2073  and  _2074
REMARK  610  A    between atoms: _2073  and  _2076
REMARK  611  A    between atoms: _2076  and  _2077
REMARK  612  A    between atoms: _2076  and  _2078
REMARK  613  A    between atoms: _2088  and  _2089
REMARK  614  A    between atoms: _2089  and  _2090
REMARK  615  A    between atoms: _2089  and  _2092
REMARK  616  A    between atoms: _2092  and  _2093
REMARK  617  A    between atoms: _2092  and  _2094
REMARK  618  A    between atoms: _2102  and  _2103
REMARK  619  A    between atoms: _2103  and  _2104
REMARK  620  A    between atoms: _2103  and  _2106
REMARK  621  A    between atoms: _2106  and  _2107
REMARK  622  A    between atoms: _2106  and  _2108
REMARK  623  A    between atoms: _2118  and  _2119
REMARK  624  A    between atoms: _2119  and  _2120
REMARK  625  A    between atoms: _2119  and  _2122
REMARK  626  A    between atoms: _2122  and  _2123
REMARK  627  A    between atoms: _2122  and  _2124
REMARK  628  A    between atoms: _2123  and  _2125
REMARK  629  A    between atoms: _2137  and  _2138
REMARK  630  A    between atoms: _2138  and  _2139
REMARK  631  A    between atoms: _2138  and  _2141
REMARK  632  A    between atoms: _2141  and  _2142
REMARK  633  A    between atoms: _2141  and  _2143
REMARK  634  A    between atoms: _2151  and  _2152
REMARK  635  A    between atoms: _2152  and  _2153
REMARK  636  A    between atoms: _2152  and  _2155
REMARK  637  A    between atoms: _2155  and  _2156
REMARK  638  A    between atoms: _2156  and  _2157
REMARK  639  A    between atoms: _2157  and  _2158
REMARK  640  A    between atoms: _2158  and  _2159
REMARK  641  A    between atoms: _2173  and  _2174
REMARK  642  A    between atoms: _2174  and  _2175
REMARK  643  A    between atoms: _2174  and  _2177
REMARK  644  A    between atoms: _2177  and  _2178
REMARK  645  A    between atoms: _2190  and  _2191
REMARK  646  A    between atoms: _2191  and  _2192
REMARK  647  A    between atoms: _2191  and  _2194
REMARK  648  A    between atoms: _2194  and  _2195
REMARK  649  A    between atoms: _2204  and  _2205
REMARK  650  A    between atoms: _2205  and  _2206
REMARK  651  A    between atoms: _2205  and  _2208
REMARK  652  A    between atoms: _2208  and  _2209
REMARK  653  A    between atoms: _2216  and  _2217
REMARK  654  A    between atoms: _2217  and  _2218
REMARK  655  A    between atoms: _2217  and  _2220
REMARK  656  A    between atoms: _2220  and  _2221
REMARK  657  A    between atoms: _2228  and  _2229
REMARK  658  A    between atoms: _2229  and  _2230
REMARK  659  A    between atoms: _2229  and  _2232
REMARK  660  A    between atoms: _2232  and  _2233
REMARK  661  A    between atoms: _2233  and  _2234
REMARK  662  A    between atoms: _2243  and  _2244
REMARK  663  A    between atoms: _2244  and  _2245
REMARK  664  A    between atoms: _2244  and  _2247
REMARK  665  A    between atoms: _2247  and  _2248
REMARK  666  A    between atoms: _2248  and  _2249
REMARK  667  A    between atoms: _2260  and  _2261
REMARK  668  A    between atoms: _2261  and  _2262
REMARK  669  A    between atoms: _2261  and  _2264
REMARK  670  A    between atoms: _2264  and  _2265
REMARK  671  A    between atoms: _2270  and  _2271
REMARK  672  A    between atoms: _2281  and  _2282
REMARK  673  A    between atoms: _2282  and  _2283
REMARK  674  A    between atoms: _2282  and  _2285
REMARK  675  A    between atoms: _2291  and  _2292
REMARK  676  A    between atoms: _2292  and  _2293
REMARK  677  A    between atoms: _2292  and  _2295
REMARK  678  A    between atoms: _2295  and  _2296
REMARK  679  A    between atoms: _2315  and  _2316
REMARK  680  A    between atoms: _2316  and  _2317
REMARK  681  A    between atoms: _2316  and  _2319
REMARK  682  A    between atoms: _2319  and  _2320
REMARK  683  A    between atoms: _2320  and  _2321
REMARK  684  A    between atoms: _2330  and  _2331
REMARK  685  A    between atoms: _2331  and  _2332
REMARK  686  A    between atoms: _2331  and  _2334
REMARK  687  A    between atoms: _2334  and  _2335
REMARK  688  A    between atoms: _2341  and  _2342
REMARK  689  A    between atoms: _2342  and  _2343
REMARK  690  A    between atoms: _2342  and  _2345
REMARK  691  A    between atoms: _2345  and  _2346
REMARK  692  A    between atoms: _2352  and  _2353
REMARK  693  A    between atoms: _2353  and  _2354
REMARK  694  A    between atoms: _2353  and  _2356
REMARK  695  A    between atoms: _2362  and  _2363
REMARK  696  A    between atoms: _2363  and  _2364
REMARK  697  A    between atoms: _2369  and  _2370
REMARK  698  A    between atoms: _2370  and  _2371
REMARK  699  A    between atoms: _2376  and  _2377
REMARK  700  A    between atoms: _2377  and  _2378
REMARK  701  A    between atoms: _2377  and  _2380
REMARK  702  A    between atoms: _2380  and  _2381
REMARK  703  A    between atoms: _2387  and  _2388
REMARK  704  A    between atoms: _2388  and  _2389
REMARK  705  A    between atoms: _2388  and  _2391
REMARK  706  A    between atoms: _2391  and  _2392
REMARK  707  A    between atoms: _2407  and  _2408
REMARK  708  A    between atoms: _2408  and  _2409
REMARK  709  A    between atoms: _2408  and  _2411
REMARK  710  A    between atoms: _2411  and  _2412
REMARK  711  A    between atoms: _2411  and  _2413
REMARK  712  A    between atoms: _2421  and  _2422
REMARK  713  A    between atoms: _2422  and  _2423
REMARK  714  A    between atoms: _2422  and  _2425
REMARK  715  A    between atoms: _2425  and  _2426
REMARK  716  A    between atoms: _2425  and  _2427
REMARK  717  A    between atoms: _2437  and  _2438
REMARK  718  A    between atoms: _2438  and  _2439
REMARK  719  A    between atoms: _2438  and  _2441
REMARK  720  A    between atoms: _2441  and  _2442
REMARK  721  A    between atoms: _2442  and  _2443
REMARK  722  A    between atoms: _2443  and  _2444
REMARK  723  A    between atoms: _2461  and  _2462
REMARK  724  A    between atoms: _2462  and  _2463
REMARK  725  A    between atoms: _2462  and  _2465
REMARK  726  A    between atoms: _2465  and  _2466
REMARK  727  A    between atoms: _2465  and  _2467
REMARK  728  A    between atoms: _2475  and  _2476
REMARK  729  A    between atoms: _2476  and  _2477
REMARK  730  A    between atoms: _2476  and  _2479
REMARK  731  A    between atoms: _2479  and  _2480
REMARK  732  A    between atoms: _2487  and  _2488
REMARK  733  A    between atoms: _2488  and  _2489
REMARK  734  A    between atoms: _2488  and  _2491
REMARK  735  A    between atoms: _2491  and  _2492
REMARK  736  A    between atoms: _2491  and  _2493
REMARK  737  A    between atoms: _2501  and  _2502
REMARK  738  A    between atoms: _2502  and  _2503
REMARK  739  A    between atoms: _2508  and  _2509
REMARK  740  A    between atoms: _2509  and  _2510
REMARK  741  A    between atoms: _2509  and  _2512
REMARK  742  A    between atoms: _2512  and  _2513
REMARK  743  A    between atoms: _2513  and  _2514
REMARK  744  A    between atoms: _2524  and  _2525
REMARK  745  A    between atoms: _2537  and  _2538
REMARK  746  A    between atoms: _2538  and  _2539
REMARK  747  A    between atoms: _2538  and  _2541
REMARK  748  A    between atoms: _2541  and  _2542
REMARK  749  A    between atoms: _2542  and  _2543
REMARK  750  A    between atoms: _2543  and  _2544
REMARK  751  A    between atoms: _2554  and  _2555
REMARK  752  A    between atoms: _2555  and  _2556
REMARK  753  A    between atoms: _2561  and  _2562
REMARK  754  A    between atoms: _2562  and  _2563
REMARK  755  A    between atoms: _2562  and  _2565
REMARK  756  A    between atoms: _2565  and  _2566
REMARK  757  A    between atoms: _2566  and  _2567
REMARK  758  A    between atoms: _2567  and  _2568
REMARK  759  A    between atoms: _2585  and  _2586
REMARK  760  A    between atoms: _2586  and  _2587
REMARK  761  A    between atoms: _2592  and  _2593
REMARK  762  A    between atoms: _2593  and  _2594
REMARK  763  A    between atoms: _2593  and  _2596
REMARK  764  A    between atoms: _2596  and  _2597
REMARK  765  A    between atoms: _2596  and  _2598
REMARK  766  A    between atoms: _2606  and  _2607
REMARK  767  A    between atoms: _2607  and  _2608
REMARK  768  A    between atoms: _2607  and  _2610
REMARK  769  A    between atoms: _2610  and  _2611
REMARK  770  A    between atoms: _2611  and  _2612
REMARK  771  A    between atoms: _2612  and  _2613
REMARK  772  A    between atoms: _2613  and  _2614
REMARK  773  A    between atoms: _2628  and  _2629
REMARK  774  A    between atoms: _2629  and  _2630
REMARK  775  A    between atoms: _2629  and  _2632
REMARK  776  A    between atoms: _2632  and  _2633
REMARK  777  A    between atoms: _2632  and  _2634
REMARK  778  A    between atoms: _2644  and  _2645
REMARK  779  A    between atoms: _2645  and  _2646
REMARK  780  A    between atoms: _2645  and  _2648
REMARK  781  A    between atoms: _2648  and  _2649
REMARK  782  A    between atoms: _2648  and  _2650
REMARK  783  A    between atoms: _2649  and  _2651
REMARK  784  A    between atoms: _2663  and  _2664
REMARK  785  A    between atoms: _2664  and  _2665
REMARK  786  A    between atoms: _2664  and  _2667
REMARK  787  A    between atoms: _2667  and  _2668
REMARK  788  A    between atoms: _2668  and  _2669
REMARK  789  A    between atoms: _2668  and  _2670
REMARK  790  A    between atoms: _2682  and  _2683
REMARK  791  A    between atoms: _2683  and  _2684
REMARK  792  A    between atoms: _2683  and  _2686
REMARK  793  A    between atoms: _2686  and  _2687
REMARK  794  A    between atoms: _2699  and  _2700
REMARK  795  A    between atoms: _2700  and  _2701
REMARK  796  A    between atoms: _2700  and  _2703
REMARK  797  A    between atoms: _2703  and  _2704
REMARK  798  A    between atoms: _2704  and  _2705
REMARK  799  A    between atoms: _2704  and  _2706
REMARK  800  A    between atoms: _2718  and  _2719
REMARK  801  A    between atoms: _2719  and  _2720
REMARK  802  A    between atoms: _2719  and  _2722
REMARK  803  A    between atoms: _2722  and  _2723
REMARK  804  A    between atoms: _2723  and  _2724
REMARK  805  A    between atoms: _2724  and  _2725
REMARK  806  A    between atoms: _2725  and  _2726
REMARK  807  A    between atoms: _2740  and  _2741
REMARK  808  A    between atoms: _2741  and  _2742
REMARK  809  A    between atoms: _2741  and  _2744
REMARK  810  A    between atoms: _2744  and  _2745
REMARK  811  A    between atoms: _2745  and  _2746
REMARK  812  A    between atoms: _2755  and  _2756
REMARK  813  A    between atoms: _2756  and  _2757
REMARK  814  A    between atoms: _2756  and  _2759
REMARK  815  A    between atoms: _2759  and  _2760
REMARK  816  A    between atoms: _2767  and  _2768
REMARK  817  A    between atoms: _2768  and  _2769
REMARK  818  A    between atoms: _2768  and  _2771
REMARK  819  A    between atoms: _2771  and  _2772
REMARK  820  A    between atoms: _2772  and  _2773
REMARK  821  A    between atoms: _2784  and  _2785
REMARK  822  A    between atoms: _2785  and  _2786
REMARK  823  A    between atoms: _2785  and  _2788
REMARK  824  A    between atoms: _2788  and  _2789
REMARK  825  A    between atoms: _2788  and  _2790
REMARK  826  A    between atoms: _2798  and  _2799
REMARK  827  A    between atoms: _2799  and  _2800
REMARK  828  A    between atoms: _2799  and  _2802
REMARK  829  A    between atoms: _2802  and  _2803
REMARK  830  A    between atoms: _2803  and  _2804
REMARK  831  A    between atoms: _2813  and  _2814
REMARK  832  A    between atoms: _2814  and  _2815
REMARK  833  A    between atoms: _2814  and  _2817
REMARK  834  A    between atoms: _2817  and  _2818
REMARK  835  A    between atoms: _2823  and  _2824
REMARK  836  A    between atoms: _2834  and  _2835
REMARK  837  A    between atoms: _2835  and  _2838
REMARK  838  A    between atoms: _2838  and  _2839
REMARK  839  A    between atoms: _2839  and  _2840
REMARK  840  A    between atoms: _2839  and  _2841
REMARK  841  A    between atoms: _2884  and  _2885
REMARK  842  A    between atoms: _2884  and  _2887
REMARK  843  A    between atoms: _2887  and  _2888
REMARK  844  A    between atoms: _2888  and  _2889
REMARK  845  A    between atoms: _2899  and  _2900
REMARK  846  A    between atoms: _2900  and  _2901
REMARK  847  A    between atoms: _2900  and  _2903
REMARK  848  A    between atoms: _2903  and  _2904
REMARK  849  A    between atoms: _2904  and  _2905
REMARK  850  A    between atoms: _2905  and  _2906
REMARK  851  A    between atoms: _2923  and  _2924
REMARK  852  A    between atoms: _2924  and  _2925
REMARK  853  A    between atoms: _2924  and  _2927
REMARK  854  A    between atoms: _2927  and  _2928
REMARK  855  A    between atoms: _2928  and  _2929
REMARK  856  A    between atoms: _2929  and  _2930
REMARK  857  A    between atoms: _2947  and  _2948
REMARK  858  A    between atoms: _2948  and  _2949
REMARK  859  A    between atoms: _2948  and  _2951
REMARK  860  A    between atoms: _2951  and  _2952
REMARK  861  A    between atoms: _2951  and  _2953
REMARK  862  A    between atoms: _2952  and  _2954
REMARK  863  A    between atoms: _2966  and  _2967
REMARK  864  A    between atoms: _2967  and  _2968
REMARK  865  A    between atoms: _2967  and  _2970
REMARK  866  A    between atoms: _2970  and  _2971
REMARK  867  A    between atoms: _2971  and  _2972
REMARK  868  A    between atoms: _2972  and  _2973
REMARK  869  A    between atoms: _2973  and  _2974
REMARK  870  A    between atoms: _2988  and  _2989
REMARK  871  A    between atoms: _2989  and  _2990
REMARK  872  A    between atoms: _2989  and  _2992
REMARK  873  A    between atoms: _2992  and  _2993
REMARK  874  A    between atoms: _2993  and  _2994
REMARK  875  A    between atoms: _3003  and  _3004
REMARK  876  A    between atoms: _3004  and  _3005
REMARK  877  A    between atoms: _3004  and  _3007
REMARK  878  A    between atoms: _3007  and  _3008
REMARK  879  A    between atoms: _3007  and  _3009
REMARK  880  A    between atoms: _3008  and  _3010
REMARK  881  A    between atoms: _3022  and  _3023
REMARK  882  A    between atoms: _3023  and  _3024
REMARK  883  A    between atoms: _3023  and  _3026
REMARK  884  A    between atoms: _3026  and  _3027
REMARK  885  A    between atoms: _3026  and  _3028
REMARK  886  A    between atoms: _3038  and  _3039
REMARK  887  A    between atoms: _3039  and  _3040
REMARK  888  A    between atoms: _3039  and  _3042
REMARK  889  A    between atoms: _3042  and  _3043
REMARK  890  A    between atoms: _3043  and  _3044
REMARK  891  A    between atoms: _3044  and  _3045
REMARK  892  A    between atoms: _3045  and  _3046
REMARK  893  A    between atoms: _3060  and  _3061
REMARK  894  A    between atoms: _3061  and  _3062
REMARK  895  A    between atoms: _3061  and  _3064
REMARK  896  A    between atoms: _3064  and  _3065
REMARK  897  A    between atoms: _3065  and  _3066
REMARK  898  A    between atoms: _3066  and  _3067
REMARK  899  A    between atoms: _3067  and  _3068
REMARK  900  A    between atoms: _3082  and  _3083
REMARK  901  A    between atoms: _3083  and  _3084
REMARK  902  A    between atoms: _3083  and  _3086
REMARK  903  A    between atoms: _3086  and  _3087
REMARK  904  A    between atoms: _3099  and  _3100
REMARK  905  A    between atoms: _3100  and  _3101
REMARK  906  A    between atoms: _3100  and  _3103
REMARK  907  A    between atoms: _3103  and  _3104
REMARK  908  A    between atoms: _3110  and  _3111
REMARK  909  A    between atoms: _3111  and  _3112
REMARK  910  A    between atoms: _3111  and  _3114
REMARK  911  A    between atoms: _3114  and  _3115
REMARK  912  A    between atoms: _3115  and  _3116
REMARK  913  A    between atoms: _3127  and  _3128
REMARK  914  A    between atoms: _3128  and  _3129
REMARK  915  A    between atoms: _3128  and  _3131
REMARK  916  A    between atoms: _3131  and  _3132
REMARK  917  A    between atoms: _3147  and  _3148
REMARK  918  A    between atoms: _3148  and  _3149
REMARK  919  A    between atoms: _3148  and  _3151
REMARK  920  A    between atoms: _3151  and  _3152
REMARK  921  A    between atoms: _3151  and  _3153
REMARK  922  A    between atoms: _3152  and  _3154
REMARK  923  A    between atoms: _3166  and  _3167
REMARK  924  A    between atoms: _3167  and  _3168
REMARK  925  A    between atoms: _3173  and  _3174
REMARK  926  A    between atoms: _3174  and  _3175
REMARK  927  A    between atoms: _3174  and  _3177
REMARK  928  A    between atoms: _3177  and  _3178
REMARK  929  A    between atoms: _3183  and  _3184
REMARK  930  A    between atoms: _3195  and  _3196
REMARK  931  A    between atoms: _3208  and  _3209
REMARK  932  A    between atoms: _3209  and  _3210
REMARK  933  A    between atoms: _3209  and  _3212
REMARK  934  A    between atoms: _3212  and  _3213
REMARK  935  A    between atoms: _3212  and  _3214
REMARK  936  A    between atoms: _3213  and  _3215
REMARK  937  A    between atoms: _3227  and  _3228
REMARK  938  A    between atoms: _3228  and  _3229
REMARK  939  A    between atoms: _3228  and  _3231
REMARK  940  A    between atoms: _3231  and  _3232
REMARK  941  A    between atoms: _3231  and  _3233
REMARK  942  A    between atoms: _3241  and  _3242
REMARK  943  A    between atoms: _3242  and  _3243
REMARK  944  A    between atoms: _3242  and  _3245
REMARK  945  A    between atoms: _3245  and  _3246
REMARK  946  A    between atoms: _3246  and  _3247
REMARK  947  A    between atoms: _3246  and  _3248
REMARK  948  A    between atoms: _3260  and  _3261
REMARK  949  A    between atoms: _3261  and  _3262
REMARK  950  A    between atoms: _3261  and  _3264
REMARK  951  A    between atoms: _3264  and  _3265
REMARK  952  A    between atoms: _3280  and  _3281
REMARK  953  A    between atoms: _3281  and  _3282
REMARK  954  A    between atoms: _3281  and  _3284
REMARK  955  A    between atoms: _3284  and  _3285
REMARK  956  A    between atoms: _3284  and  _3286
REMARK  957  A    between atoms: _3296  and  _3297
REMARK  958  A    between atoms: _3297  and  _3298
REMARK  959  A    between atoms: _3297  and  _3300
REMARK  960  A    between atoms: _3300  and  _3301
REMARK  961  A    between atoms: _3301  and  _3302
REMARK                            x       y       z     vdW  Elec       q    Type
REMARK                         _______ _______ _______ _____ _____    ______ ____
ROOT
ATOM      1  H   UNK     1       7.555  37.622  42.009  0.00  0.00    +0.000 HD
ENDROOT
TORSDOF 0
REMARK  Name = /Users/mlugowska/PhD/ML_residence_time_prediction/protein_files/5J20_protein.pdb
REMARK  961 active torsions:
REMARK  status: ('A' for Active; 'I' for Inactive)
REMARK    1  A    between atoms: _2  and  _3
REMARK    2  A    between atoms: _2  and  _5
REMARK    3  A    between atoms: _10  and  _11
REMARK    4  A    between atoms: _11  and  _12
REMARK    5  A    between atoms: _11  and  _14
REMARK    6  A    between atoms: _14  and  _15
REMARK    7  A    between atoms: _14  and  _16
REMARK    8  A    between atoms: _26  and  _27
REMARK    9  A    between atoms: _27  and  _28
REMARK   10  A    between atoms: _27  and  _30
REMARK   11  A    between atoms: _30  and  _31
REMARK   12  A    between atoms: _31  and  _32
REMARK   13  A    between atoms: _41  and  _42
REMARK   14  A    between atoms: _42  and  _43
REMARK   15  A    between atoms: _42  and  _45
REMARK   16  A    between atoms: _45  and  _46
REMARK   17  A    between atoms: _45  and  _47
REMARK   18  A    between atoms: _55  and  _56
REMARK   19  A    between atoms: _56  and  _57
REMARK   20  A    between atoms: _56  and  _59
REMARK   21  A    between atoms: _59  and  _60
REMARK   22  A    between atoms: _75  and  _76
REMARK   23  A    between atoms: _76  and  _77
REMARK   24  A    between atoms: _76  and  _79
REMARK   25  A    between atoms: _85  and  _86
REMARK   26  A    between atoms: _86  and  _87
REMARK   27  A    between atoms: _86  and  _89
REMARK   28  A    between atoms: _89  and  _90
REMARK   29  A    between atoms: _105  and  _106
REMARK   30  A    between atoms: _106  and  _107
REMARK   31  A    between atoms: _106  and  _109
REMARK   32  A    between atoms: _109  and  _110
REMARK   33  A    between atoms: _110  and  _111
REMARK   34  A    between atoms: _122  and  _123
REMARK   35  A    between atoms: _123  and  _124
REMARK   36  A    between atoms: _123  and  _126
REMARK   37  A    between atoms: _132  and  _133
REMARK   38  A    between atoms: _133  and  _134
REMARK   39  A    between atoms: _133  and  _136
REMARK   40  A    between atoms: _136  and  _137
REMARK   41  A    between atoms: _137  and  _138
REMARK   42  A    between atoms: _147  and  _148
REMARK   43  A    between atoms: _148  and  _149
REMARK   44  A    between atoms: _148  and  _151
REMARK   45  A    between atoms: _151  and  _152
REMARK   46  A    between atoms: _151  and  _153
REMARK   47  A    between atoms: _152  and  _154
REMARK   48  A    between atoms: _166  and  _167
REMARK   49  A    between atoms: _167  and  _168
REMARK   50  A    between atoms: _167  and  _170
REMARK   51  A    between atoms: _176  and  _177
REMARK   52  A    between atoms: _177  and  _178
REMARK   53  A    between atoms: _177  and  _180
REMARK   54  A    between atoms: _180  and  _181
REMARK   55  A    between atoms: _181  and  _182
REMARK   56  A    between atoms: _193  and  _194
REMARK   57  A    between atoms: _194  and  _195
REMARK   58  A    between atoms: _194  and  _197
REMARK   59  A    between atoms: _197  and  _198
REMARK   60  A    between atoms: _198  and  _199
REMARK   61  A    between atoms: _198  and  _200
REMARK   62  A    between atoms: _212  and  _213
REMARK   63  A    between atoms: _213  and  _214
REMARK   64  A    between atoms: _213  and  _216
REMARK   65  A    between atoms: _216  and  _217
REMARK   66  A    between atoms: _217  and  _218
REMARK   67  A    between atoms: _218  and  _219
REMARK   68  A    between atoms: _229  and  _230
REMARK   69  A    between atoms: _230  and  _231
REMARK   70  A    between atoms: _230  and  _233
REMARK   71  A    between atoms: _233  and  _234
REMARK   72  A    between atoms: _240  and  _241
REMARK   73  A    between atoms: _241  and  _242
REMARK   74  A    between atoms: _241  and  _244
REMARK   75  A    between atoms: _244  and  _245
REMARK   76  A    between atoms: _245  and  _246
REMARK   77  A    between atoms: _245  and  _247
REMARK   78  A    between atoms: _259  and  _260
REMARK   79  A    between atoms: _260  and  _261
REMARK   80  A    between atoms: _260  and  _263
REMARK   81  A    between atoms: _263  and  _264
REMARK   82  A    between atoms: _263  and  _265
REMARK   83  A    between atoms: _264  and  _266
REMARK   84  A    between atoms: _278  and  _279
REMARK   85  A    between atoms: _279  and  _280
REMARK   86  A    between atoms: _279  and  _282
REMARK   87  A    between atoms: _282  and  _283
REMARK   88  A    between atoms: _282  and  _284
REMARK   89  A    between atoms: _283  and  _285
REMARK   90  A    between atoms: _297  and  _298
REMARK   91  A    between atoms: _298  and  _299
REMARK   92  A    between atoms: _298  and  _301
REMARK   93  A    between atoms: _301  and  _302
REMARK   94  A    between atoms: _311  and  _312
REMARK   95  A    between atoms: _312  and  _313
REMARK   96  A    between atoms: _312  and  _315
REMARK   97  A    between atoms: _315  and  _316
REMARK   98  A    between atoms: _315  and  _317
REMARK   99  A    between atoms: _325  and  _326
REMARK  100  A    between atoms: _326  and  _327
REMARK  101  A    between atoms: _326  and  _329
REMARK  102  A    between atoms: _329  and  _330
REMARK  103  A    between atoms: _345  and  _346
REMARK  104  A    between atoms: _346  and  _347
REMARK  105  A    between atoms: _346  and  _349
REMARK  106  A    between atoms: _349  and  _350
REMARK  107  A    between atoms: _355  and  _356
REMARK  108  A    between atoms: _366  and  _367
REMARK  109  A    between atoms: _367  and  _368
REMARK  110  A    between atoms: _367  and  _370
REMARK  111  A    between atoms: _370  and  _371
REMARK  112  A    between atoms: _377  and  _378
REMARK  113  A    between atoms: _378  and  _379
REMARK  114  A    between atoms: _378  and  _381
REMARK  115  A    between atoms: _381  and  _382
REMARK  116  A    between atoms: _391  and  _392
REMARK  117  A    between atoms: _392  and  _393
REMARK  118  A    between atoms: _392  and  _395
REMARK  119  A    between atoms: _395  and  _396
REMARK  120  A    between atoms: _396  and  _397
REMARK  121  A    between atoms: _397  and  _398
REMARK  122  A    between atoms: _398  and  _399
REMARK  123  A    between atoms: _413  and  _414
REMARK  124  A    between atoms: _414  and  _415
REMARK  125  A    between atoms: _414  and  _417
REMARK  126  A    between atoms: _417  and  _418
REMARK  127  A    between atoms: _418  and  _419
REMARK  128  A    between atoms: _428  and  _429
REMARK  129  A    between atoms: _429  and  _430
REMARK  130  A    between atoms: _429  and  _432
REMARK  131  A    between atoms: _432  and  _433
REMARK  132  A    between atoms: _432  and  _434
REMARK  133  A    between atoms: _433  and  _435
REMARK  134  A    between atoms: _447  and  _448
REMARK  135  A    between atoms: _448  and  _449
REMARK  136  A    between atoms: _448  and  _451
REMARK  137  A    between atoms: _451  and  _452
REMARK  138  A    between atoms: _467  and  _468
REMARK  139  A    between atoms: _468  and  _469
REMARK  140  A    between atoms: _468  and  _471
REMARK  141  A    between atoms: _471  and  _472
REMARK  142  A    between atoms: _472  and  _473
REMARK  143  A    between atoms: _472  and  _474
REMARK  144  A    between atoms: _486  and  _487
REMARK  145  A    between atoms: _487  and  _488
REMARK  146  A    between atoms: _487  and  _490
REMARK  147  A    between atoms: _490  and  _491
REMARK  148  A    between atoms: _491  and  _492
REMARK  149  A    between atoms: _492  and  _493
REMARK  150  A    between atoms: _510  and  _511
REMARK  151  A    between atoms: _511  and  _512
REMARK  152  A    between atoms: _511  and  _514
REMARK  153  A    between atoms: _514  and  _515
REMARK  154  A    between atoms: _515  and  _516
REMARK  155  A    between atoms: _525  and  _526
REMARK  156  A    between atoms: _526  and  _527
REMARK  157  A    between atoms: _526  and  _529
REMARK  158  A    between atoms: _529  and  _530
REMARK  159  A    between atoms: _530  and  _531
REMARK  160  A    between atoms: _530  and  _532
REMARK  161  A    between atoms: _544  and  _545
REMARK  162  A    between atoms: _545  and  _546
REMARK  163  A    between atoms: _545  and  _548
REMARK  164  A    between atoms: _548  and  _549
REMARK  165  A    between atoms: _548  and  _550
REMARK  166  A    between atoms: _549  and  _551
REMARK  167  A    between atoms: _563  and  _564
REMARK  168  A    between atoms: _564  and  _565
REMARK  169  A    between atoms: _564  and  _567
REMARK  170  A    between atoms: _567  and  _568
REMARK  171  A    between atoms: _574  and  _575
REMARK  172  A    between atoms: _575  and  _576
REMARK  173  A    between atoms: _575  and  _578
REMARK  174  A    between atoms: _578  and  _579
REMARK  175  A    between atoms: _588  and  _589
REMARK  176  A    between atoms: _589  and  _590
REMARK  177  A    between atoms: _589  and  _592
REMARK  178  A    between atoms: _592  and  _593
REMARK  179  A    between atoms: _599  and  _600
REMARK  180  A    between atoms: _600  and  _601
REMARK  181  A    between atoms: _600  and  _603
REMARK  182  A    between atoms: _603  and  _604
REMARK  183  A    between atoms: _610  and  _611
REMARK  184  A    between atoms: _611  and  _612
REMARK  185  A    between atoms: _611  and  _614
REMARK  186  A    between atoms: _614  and  _615
REMARK  187  A    between atoms: _622  and  _623
REMARK  188  A    between atoms: _623  and  _624
REMARK  189  A    between atoms: _623  and  _626
REMARK  190  A    between atoms: _632  and  _633
REMARK  191  A    between atoms: _633  and  _634
REMARK  192  A    between atoms: _633  and  _636
REMARK  193  A    between atoms: _636  and  _637
REMARK  194  A    between atoms: _637  and  _638
REMARK  195  A    between atoms: _637  and  _639
REMARK  196  A    between atoms: _651  and  _652
REMARK  197  A    between atoms: _652  and  _653
REMARK  198  A    between atoms: _652  and  _655
REMARK  199  A    between atoms: _655  and  _656
REMARK  200  A    between atoms: _663  and  _664
REMARK  201  A    between atoms: _664  and  _665
REMARK  202  A    between atoms: _664  and  _667
REMARK  203  A    between atoms: _667  and  _668
REMARK  204  A    between atoms: _668  and  _669
REMARK  205  A    between atoms: _669  and  _670
REMARK  206  A    between atoms: _670  and  _671
REMARK  207  A    between atoms: _685  and  _686
REMARK  208  A    between atoms: _686  and  _687
REMARK  209  A    between atoms: _686  and  _689
REMARK  210  A    between atoms: _689  and  _690
REMARK  211  A    between atoms: _689  and  _691
REMARK  212  A    between atoms: _690  and  _692
REMARK  213  A    between atoms: _704  and  _705
REMARK  214  A    between atoms: _705  and  _706
REMARK  215  A    between atoms: _705  and  _708
REMARK  216  A    between atoms: _708  and  _709
REMARK  217  A    between atoms: _709  and  _710
REMARK  218  A    between atoms: _710  and  _711
REMARK  219  A    between atoms: _728  and  _729
REMARK  220  A    between atoms: _729  and  _730
REMARK  221  A    between atoms: _729  and  _732
REMARK  222  A    between atoms: _732  and  _733
REMARK  223  A    between atoms: _738  and  _739
REMARK  224  A    between atoms: _749  and  _750
REMARK  225  A    between atoms: _750  and  _751
REMARK  226  A    between atoms: _750  and  _753
REMARK  227  A    between atoms: _753  and  _754
REMARK  228  A    between atoms: _754  and  _755
REMARK  229  A    between atoms: _764  and  _765
REMARK  230  A    between atoms: _765  and  _766
REMARK  231  A    between atoms: _765  and  _768
REMARK  232  A    between atoms: _772  and  _773
REMARK  233  A    between atoms: _773  and  _774
REMARK  234  A    between atoms: _773  and  _776
REMARK  235  A    between atoms: _776  and  _777
REMARK  236  A    between atoms: _777  and  _778
REMARK  237  A    between atoms: _777  and  _779
REMARK  238  A    between atoms: _791  and  _792
REMARK  239  A    between atoms: _792  and  _793
REMARK  240  A    between atoms: _792  and  _795
REMARK  241  A    between atoms: _795  and  _796
REMARK  242  A    between atoms: _795  and  _797
REMARK  243  A    between atoms: _805  and  _806
REMARK  244  A    between atoms: _806  and  _807
REMARK  245  A    between atoms: _806  and  _809
REMARK  246  A    between atoms: _809  and  _810
REMARK  247  A    between atoms: _818  and  _819
REMARK  248  A    between atoms: _831  and  _832
REMARK  249  A    between atoms: _832  and  _833
REMARK  250  A    between atoms: _832  and  _835
REMARK  251  A    between atoms: _835  and  _836
REMARK  252  A    between atoms: _842  and  _843
REMARK  253  A    between atoms: _843  and  _844
REMARK  254  A    between atoms: _843  and  _846
REMARK  255  A    between atoms: _846  and  _847
REMARK  256  A    between atoms: _847  and  _848
REMARK  257  A    between atoms: _848  and  _849
REMARK  258  A    between atoms: _849  and  _850
REMARK  259  A    between atoms: _864  and  _865
REMARK  260  A    between atoms: _865  and  _866
REMARK  261  A    between atoms: _865  and  _868
REMARK  262  A    between atoms: _868  and  _869
REMARK  263  A    between atoms: _869  and  _870
REMARK  264  A    between atoms: _869  and  _871
REMARK  265  A    between atoms: _883  and  _884
REMARK  266  A    between atoms: _884  and  _885
REMARK  267  A    between atoms: _884  and  _887
REMARK  268  A    between atoms: _887  and  _888
REMARK  269  A    between atoms: _895  and  _896
REMARK  270  A    between atoms: _896  and  _897
REMARK  271  A    between atoms: _896  and  _899
REMARK  272  A    between atoms: _899  and  _900
REMARK  273  A    between atoms: _906  and  _907
REMARK  274  A    between atoms: _907  and  _908
REMARK  275  A    between atoms: _913  and  _914
REMARK  276  A    between atoms: _914  and  _915
REMARK  277  A    between atoms: _914  and  _917
REMARK  278  A    between atoms: _917  and  _918
REMARK  279  A    between atoms: _918  and  _919
REMARK  280  A    between atoms: _919  and  _920
REMARK  281  A    between atoms: _920  and  _921
REMARK  282  A    between atoms: _935  and  _936
REMARK  283  A    between atoms: _936  and  _937
REMARK  284  A    between atoms: _936  and  _939
REMARK  285  A    between atoms: _939  and  _940
REMARK  286  A    between atoms: _940  and  _941
REMARK  287  A    between atoms: _950  and  _951
REMARK  288  A    between atoms: _951  and  _952
REMARK  289  A    between atoms: _951  and  _954
REMARK  290  A    between atoms: _954  and  _955
REMARK  291  A    between atoms: _955  and  _956
REMARK  292  A    between atoms: _955  and  _957
REMARK  293  A    between atoms: _969  and  _970
REMARK  294  A    between atoms: _970  and  _971
REMARK  295  A    between atoms: _970  and  _973
REMARK  296  A    between atoms: _973  and  _974
REMARK  297  A    between atoms: _986  and  _987
REMARK  298  A    between atoms: _987  and  _988
REMARK  299  A    between atoms: _987  and  _990
REMARK  300  A    between atoms: _990  and  _991
REMARK  301  A    between atoms: _990  and  _992
REMARK  302  A    between atoms: _991  and  _993
REMARK  303  A    between atoms: _1005  and  _1006
REMARK  304  A    between atoms: _1006  and  _1007
REMARK  305  A    between atoms: _1006  and  _1009
REMARK  306  A    between atoms: _1009  and  _1010
REMARK  307  A    between atoms: _1019  and  _1020
REMARK  308  A    between atoms: _1020  and  _1021
REMARK  309  A    between atoms: _1020  and  _1023
REMARK  310  A    between atoms: _1023  and  _1024
REMARK  311  A    between atoms: _1024  and  _1025
REMARK  312  A    between atoms: _1024  and  _1026
REMARK  313  A    between atoms: _1038  and  _1039
REMARK  314  A    between atoms: _1039  and  _1040
REMARK  315  A    between atoms: _1039  and  _1042
REMARK  316  A    between atoms: _1042  and  _1043
REMARK  317  A    between atoms: _1042  and  _1044
REMARK  318  A    between atoms: _1043  and  _1045
REMARK  319  A    between atoms: _1058  and  _1059
REMARK  320  A    between atoms: _1071  and  _1072
REMARK  321  A    between atoms: _1072  and  _1073
REMARK  322  A    between atoms: _1072  and  _1075
REMARK  323  A    between atoms: _1075  and  _1076
REMARK  324  A    between atoms: _1085  and  _1086
REMARK  325  A    between atoms: _1086  and  _1087
REMARK  326  A    between atoms: _1086  and  _1089
REMARK  327  A    between atoms: _1089  and  _1090
REMARK  328  A    between atoms: _1090  and  _1091
REMARK  329  A    between atoms: _1091  and  _1092
REMARK  330  A    between atoms: _1092  and  _1093
REMARK  331  A    between atoms: _1107  and  _1108
REMARK  332  A    between atoms: _1108  and  _1109
REMARK  333  A    between atoms: _1108  and  _1111
REMARK  334  A    between atoms: _1111  and  _1112
REMARK  335  A    between atoms: _1112  and  _1113
REMARK  336  A    between atoms: _1124  and  _1125
REMARK  337  A    between atoms: _1125  and  _1126
REMARK  338  A    between atoms: _1125  and  _1128
REMARK  339  A    between atoms: _1128  and  _1129
REMARK  340  A    between atoms: _1136  and  _1137
REMARK  341  A    between atoms: _1137  and  _1138
REMARK  342  A    between atoms: _1137  and  _1140
REMARK  343  A    between atoms: _1140  and  _1141
REMARK  344  A    between atoms: _1141  and  _1142
REMARK  345  A    between atoms: _1142  and  _1143
REMARK  346  A    between atoms: _1160  and  _1161
REMARK  347  A    between atoms: _1161  and  _1162
REMARK  348  A    between atoms: _1161  and  _1164
REMARK  349  A    between atoms: _1164  and  _1165
REMARK  350  A    between atoms: _1164  and  _1166
REMARK  351  A    between atoms: _1174  and  _1175
REMARK  352  A    between atoms: _1175  and  _1176
REMARK  353  A    between atoms: _1175  and  _1178
REMARK  354  A    between atoms: _1178  and  _1179
REMARK  355  A    between atoms: _1179  and  _1180
REMARK  356  A    between atoms: _1179  and  _1181
REMARK  357  A    between atoms: _1193  and  _1194
REMARK  358  A    between atoms: _1194  and  _1195
REMARK  359  A    between atoms: _1194  and  _1197
REMARK  360  A    between atoms: _1197  and  _1198
REMARK  361  A    between atoms: _1197  and  _1199
REMARK  362  A    between atoms: _1207  and  _1208
REMARK  363  A    between atoms: _1208  and  _1209
REMARK  364  A    between atoms: _1208  and  _1211
REMARK  365  A    between atoms: _1211  and  _1212
REMARK  366  A    between atoms: _1211  and  _1213
REMARK  367  A    between atoms: _1212  and  _1214
REMARK  368  A    between atoms: _1226  and  _1227
REMARK  369  A    between atoms: _1227  and  _1228
REMARK  370  A    between atoms: _1227  and  _1230
REMARK  371  A    between atoms: _1230  and  _1231
REMARK  372  A    between atoms: _1230  and  _1232
REMARK  373  A    between atoms: _1242  and  _1243
REMARK  374  A    between atoms: _1243  and  _1244
REMARK  375  A    between atoms: _1243  and  _1246
REMARK  376  A    between atoms: _1246  and  _1247
REMARK  377  A    between atoms: _1254  and  _1255
REMARK  378  A    between atoms: _1255  and  _1256
REMARK  379  A    between atoms: _1255  and  _1258
REMARK  380  A    between atoms: _1258  and  _1259
REMARK  381  A    between atoms: _1258  and  _1260
REMARK  382  A    between atoms: _1268  and  _1269
REMARK  383  A    between atoms: _1269  and  _1270
REMARK  384  A    between atoms: _1275  and  _1276
REMARK  385  A    between atoms: _1276  and  _1277
REMARK  386  A    between atoms: _1276  and  _1279
REMARK  387  A    between atoms: _1279  and  _1280
REMARK  388  A    between atoms: _1279  and  _1281
REMARK  389  A    between atoms: _1280  and  _1282
REMARK  390  A    between atoms: _1294  and  _1295
REMARK  391  A    between atoms: _1295  and  _1296
REMARK  392  A    between atoms: _1301  and  _1302
REMARK  393  A    between atoms: _1302  and  _1303
REMARK  394  A    between atoms: _1302  and  _1305
REMARK  395  A    between atoms: _1305  and  _1306
REMARK  396  A    between atoms: _1306  and  _1307
REMARK  397  A    between atoms: _1307  and  _1308
REMARK  398  A    between atoms: _1318  and  _1319
REMARK  399  A    between atoms: _1319  and  _1320
REMARK  400  A    between atoms: _1319  and  _1322
REMARK  401  A    between atoms: _1322  and  _1323
REMARK  402  A    between atoms: _1322  and  _1324
REMARK  403  A    between atoms: _1332  and  _1333
REMARK  404  A    between atoms: _1333  and  _1334
REMARK  405  A    between atoms: _1333  and  _1336
REMARK  406  A    between atoms: _1336  and  _1337
REMARK  407  A    between atoms: _1337  and  _1338
REMARK  408  A    between atoms: _1338  and  _1339
REMARK  409  A    between atoms: _1339  and  _1340
REMARK  410  A    between atoms: _1354  and  _1355
REMARK  411  A    between atoms: _1355  and  _1356
REMARK  412  A    between atoms: _1355  and  _1358
REMARK  413  A    between atoms: _1364  and  _1365
REMARK  414  A    between atoms: _1365  and  _1366
REMARK  415  A    between atoms: _1365  and  _1368
REMARK  416  A    between atoms: _1368  and  _1369
REMARK  417  A    between atoms: _1376  and  _1377
REMARK  418  A    between atoms: _1377  and  _1378
REMARK  419  A    between atoms: _1377  and  _1380
REMARK  420  A    between atoms: _1380  and  _1381
REMARK  421  A    between atoms: _1381  and  _1382
REMARK  422  A    between atoms: _1381  and  _1383
REMARK  423  A    between atoms: _1395  and  _1396
REMARK  424  A    between atoms: _1396  and  _1399
REMARK  425  A    between atoms: _1399  and  _1400
REMARK  426  A    between atoms: _1399  and  _1401
REMARK  427  A    between atoms: _1400  and  _1402
REMARK  428  A    between atoms: _1422  and  _1425
REMARK  429  A    between atoms: _1424  and  _1428
REMARK  430  A    between atoms: _1425  and  _1427
REMARK  431  A    between atoms: _1443  and  _1444
REMARK  432  A    between atoms: _1443  and  _1446
REMARK  433  A    between atoms: _1446  and  _1447
REMARK  434  A    between atoms: _1457  and  _1458
REMARK  435  A    between atoms: _1458  and  _1459
REMARK  436  A    between atoms: _1458  and  _1461
REMARK  437  A    between atoms: _1461  and  _1462
REMARK  438  A    between atoms: _1462  and  _1463
REMARK  439  A    between atoms: _1462  and  _1464
REMARK  440  A    between atoms: _1476  and  _1477
REMARK  441  A    between atoms: _1477  and  _1478
REMARK  442  A    between atoms: _1483  and  _1484
REMARK  443  A    between atoms: _1484  and  _1485
REMARK  444  A    between atoms: _1484  and  _1487
REMARK  445  A    between atoms: _1487  and  _1488
REMARK  446  A    between atoms: _1487  and  _1489
REMARK  447  A    between atoms: _1497  and  _1498
REMARK  448  A    between atoms: _1498  and  _1499
REMARK  449  A    between atoms: _1498  and  _1501
REMARK  450  A    between atoms: _1501  and  _1502
REMARK  451  A    between atoms: _1501  and  _1503
REMARK  452  A    between atoms: _1502  and  _1504
REMARK  453  A    between atoms: _1516  and  _1517
REMARK  454  A    between atoms: _1517  and  _1518
REMARK  455  A    between atoms: _1517  and  _1520
REMARK  456  A    between atoms: _1526  and  _1527
REMARK  457  A    between atoms: _1527  and  _1528
REMARK  458  A    between atoms: _1527  and  _1530
REMARK  459  A    between atoms: _1530  and  _1531
REMARK  460  A    between atoms: _1531  and  _1532
REMARK  461  A    between atoms: _1532  and  _1533
REMARK  462  A    between atoms: _1533  and  _1534
REMARK  463  A    between atoms: _1548  and  _1549
REMARK  464  A    between atoms: _1549  and  _1550
REMARK  465  A    between atoms: _1549  and  _1552
REMARK  466  A    between atoms: _1552  and  _1553
REMARK  467  A    between atoms: _1559  and  _1560
REMARK  468  A    between atoms: _1560  and  _1561
REMARK  469  A    between atoms: _1566  and  _1567
REMARK  470  A    between atoms: _1567  and  _1568
REMARK  471  A    between atoms: _1567  and  _1570
REMARK  472  A    between atoms: _1570  and  _1571
REMARK  473  A    between atoms: _1570  and  _1572
REMARK  474  A    between atoms: _1580  and  _1581
REMARK  475  A    between atoms: _1581  and  _1582
REMARK  476  A    between atoms: _1581  and  _1584
REMARK  477  A    between atoms: _1584  and  _1585
REMARK  478  A    between atoms: _1585  and  _1586
REMARK  479  A    between atoms: _1586  and  _1587
REMARK  480  A    between atoms: _1587  and  _1588
REMARK  481  A    between atoms: _1602  and  _1603
REMARK  482  A    between atoms: _1603  and  _1604
REMARK  483  A    between atoms: _1603  and  _1606
REMARK  484  A    between atoms: _1612  and  _1613
REMARK  485  A    between atoms: _1613  and  _1614
REMARK  486  A    between atoms: _1613  and  _1616
REMARK  487  A    between atoms: _1616  and  _1617
REMARK  488  A    between atoms: _1632  and  _1633
REMARK  489  A    between atoms: _1633  and  _1634
REMARK  490  A    between atoms: _1633  and  _1636
REMARK  491  A    between atoms: _1636  and  _1637
REMARK  492  A    between atoms: _1637  and  _1638
REMARK  493  A    between atoms: _1638  and  _1639
REMARK  494  A    between atoms: _1649  and  _1650
REMARK  495  A    between atoms: _1650  and  _1651
REMARK  496  A    between atoms: _1650  and  _1653
REMARK  497  A    between atoms: _1653  and  _1654
REMARK  498  A    between atoms: _1654  and  _1655
REMARK  499  A    between atoms: _1664  and  _1665
REMARK  500  A    between atoms: _1665  and  _1666
REMARK  501  A    between atoms: _1665  and  _1668
REMARK  502  A    between atoms: _1674  and  _1675
REMARK  503  A    between atoms: _1675  and  _1676
REMARK  504  A    between atoms: _1675  and  _1678
REMARK  505  A    between atoms: _1678  and  _1679
REMARK  506  A    between atoms: _1679  and  _1680
REMARK  507  A    between atoms: _1679  and  _1681
REMARK  508  A    between atoms: _1693  and  _1694
REMARK  509  A    between atoms: _1694  and  _1695
REMARK  510  A    between atoms: _1694  and  _1697
REMARK  511  A    between atoms: _1697  and  _1698
REMARK  512  A    between atoms: _1698  and  _1699
REMARK  513  A    between atoms: _1710  and  _1711
REMARK  514  A    between atoms: _1711  and  _1712
REMARK  515  A    between atoms: _1711  and  _1714
REMARK  516  A    between atoms: _1720  and  _1721
REMARK  517  A    between atoms: _1721  and  _1722
REMARK  518  A    between atoms: _1727  and  _1728
REMARK  519  A    between atoms: _1728  and  _1729
REMARK  520  A    between atoms: _1728  and  _1731
REMARK  521  A    between atoms: _1737  and  _1738
REMARK  522  A    between atoms: _1738  and  _1739
REMARK  523  A    between atoms: _1738  and  _1741
REMARK  524  A    between atoms: _1741  and  _1742
REMARK  525  A    between atoms: _1749  and  _1750
REMARK  526  A    between atoms: _1750  and  _1751
REMARK  527  A    between atoms: _1750  and  _1753
REMARK  528  A    between atoms: _1753  and  _1754
REMARK  529  A    between atoms: _1753  and  _1755
REMARK  530  A    between atoms: _1754  and  _1756
REMARK  531  A    between atoms: _1768  and  _1769
REMARK  532  A    between atoms: _1769  and  _1772
REMARK  533  A    between atoms: _1772  and  _1773
REMARK  534  A    between atoms: _1791  and  _1793
REMARK  535  A    between atoms: _1792  and  _1794
REMARK  536  A    between atoms: _1814  and  _1815
REMARK  537  A    between atoms: _1814  and  _1817
REMARK  538  A    between atoms: _1817  and  _1818
REMARK  539  A    between atoms: _1817  and  _1819
REMARK  540  A    between atoms: _1818  and  _1820
REMARK  541  A    between atoms: _1833  and  _1834
REMARK  542  A    between atoms: _1834  and  _1835
REMARK  543  A    between atoms: _1840  and  _1841
REMARK  544  A    between atoms: _1841  and  _1842
REMARK  545  A    between atoms: _1841  and  _1844
REMARK  546  A    between atoms: _1844  and  _1845
REMARK  547  A    between atoms: _1845  and  _1846
REMARK  548  A    between atoms: _1857  and  _1858
REMARK  549  A    between atoms: _1858  and  _1859
REMARK  550  A    between atoms: _1858  and  _1861
REMARK  551  A    between atoms: _1861  and  _1862
REMARK  552  A    between atoms: _1877  and  _1878
REMARK  553  A    between atoms: _1878  and  _1879
REMARK  554  A    between atoms: _1884  and  _1885
REMARK  555  A    between atoms: _1885  and  _1886
REMARK  556  A    between atoms: _1885  and  _1888
REMARK  557  A    between atoms: _1888  and  _1889
REMARK  558  A    between atoms: _1888  and  _1890
REMARK  559  A    between atoms: _1900  and  _1901
REMARK  560  A    between atoms: _1901  and  _1902
REMARK  561  A    between atoms: _1907  and  _1908
REMARK  562  A    between atoms: _1908  and  _1909
REMARK  563  A    between atoms: _1908  and  _1911
REMARK  564  A    between atoms: _1911  and  _1912
REMARK  565  A    between atoms: _1927  and  _1928
REMARK  566  A    between atoms: _1928  and  _1929
REMARK  567  A    between atoms: _1928  and  _1931
REMARK  568  A    between atoms: _1931  and  _1932
REMARK  569  A    between atoms: _1937  and  _1938
REMARK  570  A    between atoms: _1948  and  _1949
REMARK  571  A    between atoms: _1949  and  _1950
REMARK  572  A    between atoms: _1949  and  _1952
REMARK  573  A    between atoms: _1952  and  _1953
REMARK  574  A    between atoms: _1959  and  _1960
REMARK  575  A    between atoms: _1960  and  _1961
REMARK  576  A    between atoms: _1960  and  _1963
REMARK  577  A    between atoms: _1969  and  _1970
REMARK  578  A    between atoms: _1970  and  _1971
REMARK  579  A    between atoms: _1970  and  _1973
REMARK  580  A    between atoms: _1973  and  _1974
REMARK  581  A    between atoms: _1979  and  _1980
REMARK  582  A    between atoms: _1990  and  _1991
REMARK  583  A    between atoms: _1991  and  _1992
REMARK  584  A    between atoms: _1991  and  _1994
REMARK  585  A    between atoms: _1994  and  _1995
REMARK  586  A    between atoms: _1995  and  _1996
REMARK  587  A    between atoms: _1995  and  _1997
REMARK  588  A    between atoms: _2009  and  _2010
REMARK  589  A    between atoms: _2010  and  _2011
REMARK  590  A    between atoms: _2010  and  _2013
REMARK  591  A    between atoms: _2013  and  _2014
REMARK  592  A    between atoms: _2013  and  _2015
REMARK  593  A    between atoms: _2025  and  _2026
REMARK  594  A    between atoms: _2026  and  _2027
REMARK  595  A    between atoms: _2026  and  _2029
REMARK  596  A    between atoms: _2035  and  _2036
REMARK  597  A    between atoms: _2036  and  _2037
REMARK  598  A    between atoms: _2036  and  _2039
REMARK  599  A    between atoms: _2039  and  _2040
REMARK  600  A    between atoms: _2040  and  _2041
REMARK  601  A    between atoms: _2050  and  _2051
REMARK  602  A    between atoms: _2051  and  _2052
REMARK  603  A    between atoms: _2051  and  _2054
REMARK  604  A    between atoms: _2054  and  _2055
REMARK  605  A    between atoms: _2055  and  _2056
REMARK  606  A    between atoms: _2056  and  _2057
REMARK  607  A    between atoms: _2057  and  _2058
REMARK  608  A    between atoms: _2072  and  _2073
REMARK  609  A    between atoms: _2073  and  _2074
REMARK  610  A    between atoms: _2073  and  _2076
REMARK  611  A    between atoms: _2076  and  _2077
REMARK  612  A    between atoms: _2076  and  _2078
REMARK  613  A    between atoms: _2088  and  _2089
REMARK  614  A    between atoms: _2089  and  _2090
REMARK  615  A    between atoms: _2089  and  _2092
REMARK  616  A    between atoms: _2092  and  _2093
REMARK  617  A    between atoms: _2092  and  _2094
REMARK  618  A    between atoms: _2102  and  _2103
REMARK  619  A    between atoms: _2103  and  _2104
REMARK  620  A    between atoms: _2103  and  _2106
REMARK  621  A    between atoms: _2106  and  _2107
REMARK  622  A    between atoms: _2106  and  _2108
REMARK  623  A    between atoms: _2118  and  _2119
REMARK  624  A    between atoms: _2119  and  _2120
REMARK  625  A    between atoms: _2119  and  _2122
REMARK  626  A    between atoms: _2122  and  _2123
REMARK  627  A    between atoms: _2122  and  _2124
REMARK  628  A    between atoms: _2123  and  _2125
REMARK  629  A    between atoms: _2137  and  _2138
REMARK  630  A    between atoms: _2138  and  _2139
REMARK  631  A    between atoms: _2138  and  _2141
REMARK  632  A    between atoms: _2141  and  _2142
REMARK  633  A    between atoms: _2141  and  _2143
REMARK  634  A    between atoms: _2151  and  _2152
REMARK  635  A    between atoms: _2152  and  _2153
REMARK  636  A    between atoms: _2152  and  _2155
REMARK  637  A    between atoms: _2155  and  _2156
REMARK  638  A    between atoms: _2156  and  _2157
REMARK  639  A    between atoms: _2157  and  _2158
REMARK  640  A    between atoms: _2158  and  _2159
REMARK  641  A    between atoms: _2173  and  _2174
REMARK  642  A    between atoms: _2174  and  _2175
REMARK  643  A    between atoms: _2174  and  _2177
REMARK  644  A    between atoms: _2177  and  _2178
REMARK  645  A    between atoms: _2190  and  _2191
REMARK  646  A    between atoms: _2191  and  _2192
REMARK  647  A    between atoms: _2191  and  _2194
REMARK  648  A    between atoms: _2194  and  _2195
REMARK  649  A    between atoms: _2204  and  _2205
REMARK  650  A    between atoms: _2205  and  _2206
REMARK  651  A    between atoms: _2205  and  _2208
REMARK  652  A    between atoms: _2208  and  _2209
REMARK  653  A    between atoms: _2216  and  _2217
REMARK  654  A    between atoms: _2217  and  _2218
REMARK  655  A    between atoms: _2217  and  _2220
REMARK  656  A    between atoms: _2220  and  _2221
REMARK  657  A    between atoms: _2228  and  _2229
REMARK  658  A    between atoms: _2229  and  _2230
REMARK  659  A    between atoms: _2229  and  _2232
REMARK  660  A    between atoms: _2232  and  _2233
REMARK  661  A    between atoms: _2233  and  _2234
REMARK  662  A    between atoms: _2243  and  _2244
REMARK  663  A    between atoms: _2244  and  _2245
REMARK  664  A    between atoms: _2244  and  _2247
REMARK  665  A    between atoms: _2247  and  _2248
REMARK  666  A    between atoms: _2248  and  _2249
REMARK  667  A    between atoms: _2260  and  _2261
REMARK  668  A    between atoms: _2261  and  _2262
REMARK  669  A    between atoms: _2261  and  _2264
REMARK  670  A    between atoms: _2264  and  _2265
REMARK  671  A    between atoms: _2270  and  _2271
REMARK  672  A    between atoms: _2281  and  _2282
REMARK  673  A    between atoms: _2282  and  _2283
REMARK  674  A    between atoms: _2282  and  _2285
REMARK  675  A    between atoms: _2291  and  _2292
REMARK  676  A    between atoms: _2292  and  _2293
REMARK  677  A    between atoms: _2292  and  _2295
REMARK  678  A    between atoms: _2295  and  _2296
REMARK  679  A    between atoms: _2315  and  _2316
REMARK  680  A    between atoms: _2316  and  _2317
REMARK  681  A    between atoms: _2316  and  _2319
REMARK  682  A    between atoms: _2319  and  _2320
REMARK  683  A    between atoms: _2320  and  _2321
REMARK  684  A    between atoms: _2330  and  _2331
REMARK  685  A    between atoms: _2331  and  _2332
REMARK  686  A    between atoms: _2331  and  _2334
REMARK  687  A    between atoms: _2334  and  _2335
REMARK  688  A    between atoms: _2341  and  _2342
REMARK  689  A    between atoms: _2342  and  _2343
REMARK  690  A    between atoms: _2342  and  _2345
REMARK  691  A    between atoms: _2345  and  _2346
REMARK  692  A    between atoms: _2352  and  _2353
REMARK  693  A    between atoms: _2353  and  _2354
REMARK  694  A    between atoms: _2353  and  _2356
REMARK  695  A    between atoms: _2362  and  _2363
REMARK  696  A    between atoms: _2363  and  _2364
REMARK  697  A    between atoms: _2369  and  _2370
REMARK  698  A    between atoms: _2370  and  _2371
REMARK  699  A    between atoms: _2376  and  _2377
REMARK  700  A    between atoms: _2377  and  _2378
REMARK  701  A    between atoms: _2377  and  _2380
REMARK  702  A    between atoms: _2380  and  _2381
REMARK  703  A    between atoms: _2387  and  _2388
REMARK  704  A    between atoms: _2388  and  _2389
REMARK  705  A    between atoms: _2388  and  _2391
REMARK  706  A    between atoms: _2391  and  _2392
REMARK  707  A    between atoms: _2407  and  _2408
REMARK  708  A    between atoms: _2408  and  _2409
REMARK  709  A    between atoms: _2408  and  _2411
REMARK  710  A    between atoms: _2411  and  _2412
REMARK  711  A    between atoms: _2411  and  _2413
REMARK  712  A    between atoms: _2421  and  _2422
REMARK  713  A    between atoms: _2422  and  _2423
REMARK  714  A    between atoms: _2422  and  _2425
REMARK  715  A    between atoms: _2425  and  _2426
REMARK  716  A    between atoms: _2425  and  _2427
REMARK  717  A    between atoms: _2437  and  _2438
REMARK  718  A    between atoms: _2438  and  _2439
REMARK  719  A    between atoms: _2438  and  _2441
REMARK  720  A    between atoms: _2441  and  _2442
REMARK  721  A    between atoms: _2442  and  _2443
REMARK  722  A    between atoms: _2443  and  _2444
REMARK  723  A    between atoms: _2461  and  _2462
REMARK  724  A    between atoms: _2462  and  _2463
REMARK  725  A    between atoms: _2462  and  _2465
REMARK  726  A    between atoms: _2465  and  _2466
REMARK  727  A    between atoms: _2465  and  _2467
REMARK  728  A    between atoms: _2475  and  _2476
REMARK  729  A    between atoms: _2476  and  _2477
REMARK  730  A    between atoms: _2476  and  _2479
REMARK  731  A    between atoms: _2479  and  _2480
REMARK  732  A    between atoms: _2487  and  _2488
REMARK  733  A    between atoms: _2488  and  _2489
REMARK  734  A    between atoms: _2488  and  _2491
REMARK  735  A    between atoms: _2491  and  _2492
REMARK  736  A    between atoms: _2491  and  _2493
REMARK  737  A    between atoms: _2501  and  _2502
REMARK  738  A    between atoms: _2502  and  _2503
REMARK  739  A    between atoms: _2508  and  _2509
REMARK  740  A    between atoms: _2509  and  _2510
REMARK  741  A    between atoms: _2509  and  _2512
REMARK  742  A    between atoms: _2512  and  _2513
REMARK  743  A    between atoms: _2513  and  _2514
REMARK  744  A    between atoms: _2524  and  _2525
REMARK  745  A    between atoms: _2537  and  _2538
REMARK  746  A    between atoms: _2538  and  _2539
REMARK  747  A    between atoms: _2538  and  _2541
REMARK  748  A    between atoms: _2541  and  _2542
REMARK  749  A    between atoms: _2542  and  _2543
REMARK  750  A    between atoms: _2543  and  _2544
REMARK  751  A    between atoms: _2554  and  _2555
REMARK  752  A    between atoms: _2555  and  _2556
REMARK  753  A    between atoms: _2561  and  _2562
REMARK  754  A    between atoms: _2562  and  _2563
REMARK  755  A    between atoms: _2562  and  _2565
REMARK  756  A    between atoms: _2565  and  _2566
REMARK  757  A    between atoms: _2566  and  _2567
REMARK  758  A    between atoms: _2567  and  _2568
REMARK  759  A    between atoms: _2585  and  _2586
REMARK  760  A    between atoms: _2586  and  _2587
REMARK  761  A    between atoms: _2592  and  _2593
REMARK  762  A    between atoms: _2593  and  _2594
REMARK  763  A    between atoms: _2593  and  _2596
REMARK  764  A    between atoms: _2596  and  _2597
REMARK  765  A    between atoms: _2596  and  _2598
REMARK  766  A    between atoms: _2606  and  _2607
REMARK  767  A    between atoms: _2607  and  _2608
REMARK  768  A    between atoms: _2607  and  _2610
REMARK  769  A    between atoms: _2610  and  _2611
REMARK  770  A    between atoms: _2611  and  _2612
REMARK  771  A    between atoms: _2612  and  _2613
REMARK  772  A    between atoms: _2613  and  _2614
REMARK  773  A    between atoms: _2628  and  _2629
REMARK  774  A    between atoms: _2629  and  _2630
REMARK  775  A    between atoms: _2629  and  _2632
REMARK  776  A    between atoms: _2632  and  _2633
REMARK  777  A    between atoms: _2632  and  _2634
REMARK  778  A    between atoms: _2644  and  _2645
REMARK  779  A    between atoms: _2645  and  _2646
REMARK  780  A    between atoms: _2645  and  _2648
REMARK  781  A    between atoms: _2648  and  _2649
REMARK  782  A    between atoms: _2648  and  _2650
REMARK  783  A    between atoms: _2649  and  _2651
REMARK  784  A    between atoms: _2663  and  _2664
REMARK  785  A    between atoms: _2664  and  _2665
REMARK  786  A    between atoms: _2664  and  _2667
REMARK  787  A    between atoms: _2667  and  _2668
REMARK  788  A    between atoms: _2668  and  _2669
REMARK  789  A    between atoms: _2668  and  _2670
REMARK  790  A    between atoms: _2682  and  _2683
REMARK  791  A    between atoms: _2683  and  _2684
REMARK  792  A    between atoms: _2683  and  _2686
REMARK  793  A    between atoms: _2686  and  _2687
REMARK  794  A    between atoms: _2699  and  _2700
REMARK  795  A    between atoms: _2700  and  _2701
REMARK  796  A    between atoms: _2700  and  _2703
REMARK  797  A    between atoms: _2703  and  _2704
REMARK  798  A    between atoms: _2704  and  _2705
REMARK  799  A    between atoms: _2704  and  _2706
REMARK  800  A    between atoms: _2718  and  _2719
REMARK  801  A    between atoms: _2719  and  _2720
REMARK  802  A    between atoms: _2719  and  _2722
REMARK  803  A    between atoms: _2722  and  _2723
REMARK  804  A    between atoms: _2723  and  _2724
REMARK  805  A    between atoms: _2724  and  _2725
REMARK  806  A    between atoms: _2725  and  _2726
REMARK  807  A    between atoms: _2740  and  _2741
REMARK  808  A    between atoms: _2741  and  _2742
REMARK  809  A    between atoms: _2741  and  _2744
REMARK  810  A    between atoms: _2744  and  _2745
REMARK  811  A    between atoms: _2745  and  _2746
REMARK  812  A    between atoms: _2755  and  _2756
REMARK  813  A    between atoms: _2756  and  _2757
REMARK  814  A    between atoms: _2756  and  _2759
REMARK  815  A    between atoms: _2759  and  _2760
REMARK  816  A    between atoms: _2767  and  _2768
REMARK  817  A    between atoms: _2768  and  _2769
REMARK  818  A    between atoms: _2768  and  _2771
REMARK  819  A    between atoms: _2771  and  _2772
REMARK  820  A    between atoms: _2772  and  _2773
REMARK  821  A    between atoms: _2784  and  _2785
REMARK  822  A    between atoms: _2785  and  _2786
REMARK  823  A    between atoms: _2785  and  _2788
REMARK  824  A    between atoms: _2788  and  _2789
REMARK  825  A    between atoms: _2788  and  _2790
REMARK  826  A    between atoms: _2798  and  _2799
REMARK  827  A    between atoms: _2799  and  _2800
REMARK  828  A    between atoms: _2799  and  _2802
REMARK  829  A    between atoms: _2802  and  _2803
REMARK  830  A    between atoms: _2803  and  _2804
REMARK  831  A    between atoms: _2813  and  _2814
REMARK  832  A    between atoms: _2814  and  _2815
REMARK  833  A    between atoms: _2814  and  _2817
REMARK  834  A    between atoms: _2817  and  _2818
REMARK  835  A    between atoms: _2823  and  _2824
REMARK  836  A    between atoms: _2834  and  _2835
REMARK  837  A    between atoms: _2835  and  _2838
REMARK  838  A    between atoms: _2838  and  _2839
REMARK  839  A    between atoms: _2839  and  _2840
REMARK  840  A    between atoms: _2839  and  _2841
REMARK  841  A    between atoms: _2884  and  _2885
REMARK  842  A    between atoms: _2884  and  _2887
REMARK  843  A    between atoms: _2887  and  _2888
REMARK  844  A    between atoms: _2888  and  _2889
REMARK  845  A    between atoms: _2899  and  _2900
REMARK  846  A    between atoms: _2900  and  _2901
REMARK  847  A    between atoms: _2900  and  _2903
REMARK  848  A    between atoms: _2903  and  _2904
REMARK  849  A    between atoms: _2904  and  _2905
REMARK  850  A    between atoms: _2905  and  _2906
REMARK  851  A    between atoms: _2923  and  _2924
REMARK  852  A    between atoms: _2924  and  _2925
REMARK  853  A    between atoms: _2924  and  _2927
REMARK  854  A    between atoms: _2927  and  _2928
REMARK  855  A    between atoms: _2928  and  _2929
REMARK  856  A    between atoms: _2929  and  _2930
REMARK  857  A    between atoms: _2947  and  _2948
REMARK  858  A    between atoms: _2948  and  _2949
REMARK  859  A    between atoms: _2948  and  _2951
REMARK  860  A    between atoms: _2951  and  _2952
REMARK  861  A    between atoms: _2951  and  _2953
REMARK  862  A    between atoms: _2952  and  _2954
REMARK  863  A    between atoms: _2966  and  _2967
REMARK  864  A    between atoms: _2967  and  _2968
REMARK  865  A    between atoms: _2967  and  _2970
REMARK  866  A    between atoms: _2970  and  _2971
REMARK  867  A    between atoms: _2971  and  _2972
REMARK  868  A    between atoms: _2972  and  _2973
REMARK  869  A    between atoms: _2973  and  _2974
REMARK  870  A    between atoms: _2988  and  _2989
REMARK  871  A    between atoms: _2989  and  _2990
REMARK  872  A    between atoms: _2989  and  _2992
REMARK  873  A    between atoms: _2992  and  _2993
REMARK  874  A    between atoms: _2993  and  _2994
REMARK  875  A    between atoms: _3003  and  _3004
REMARK  876  A    between atoms: _3004  and  _3005
REMARK  877  A    between atoms: _3004  and  _3007
REMARK  878  A    between atoms: _3007  and  _3008
REMARK  879  A    between atoms: _3007  and  _3009
REMARK  880  A    between atoms: _3008  and  _3010
REMARK  881  A    between atoms: _3022  and  _3023
REMARK  882  A    between atoms: _3023  and  _3024
REMARK  883  A    between atoms: _3023  and  _3026
REMARK  884  A    between atoms: _3026  and  _3027
REMARK  885  A    between atoms: _3026  and  _3028
REMARK  886  A    between atoms: _3038  and  _3039
REMARK  887  A    between atoms: _3039  and  _3040
REMARK  888  A    between atoms: _3039  and  _3042
REMARK  889  A    between atoms: _3042  and  _3043
REMARK  890  A    between atoms: _3043  and  _3044
REMARK  891  A    between atoms: _3044  and  _3045
REMARK  892  A    between atoms: _3045  and  _3046
REMARK  893  A    between atoms: _3060  and  _3061
REMARK  894  A    between atoms: _3061  and  _3062
REMARK  895  A    between atoms: _3061  and  _3064
REMARK  896  A    between atoms: _3064  and  _3065
REMARK  897  A    between atoms: _3065  and  _3066
REMARK  898  A    between atoms: _3066  and  _3067
REMARK  899  A    between atoms: _3067  and  _3068
REMARK  900  A    between atoms: _3082  and  _3083
REMARK  901  A    between atoms: _3083  and  _3084
REMARK  902  A    between atoms: _3083  and  _3086
REMARK  903  A    between atoms: _3086  and  _3087
REMARK  904  A    between atoms: _3099  and  _3100
REMARK  905  A    between atoms: _3100  and  _3101
REMARK  906  A    between atoms: _3100  and  _3103
REMARK  907  A    between atoms: _3103  and  _3104
REMARK  908  A    between atoms: _3110  and  _3111
REMARK  909  A    between atoms: _3111  and  _3112
REMARK  910  A    between atoms: _3111  and  _3114
REMARK  911  A    between atoms: _3114  and  _3115
REMARK  912  A    between atoms: _3115  and  _3116
REMARK  913  A    between atoms: _3127  and  _3128
REMARK  914  A    between atoms: _3128  and  _3129
REMARK  915  A    between atoms: _3128  and  _3131
REMARK  916  A    between atoms: _3131  and  _3132
REMARK  917  A    between atoms: _3147  and  _3148
REMARK  918  A    between atoms: _3148  and  _3149
REMARK  919  A    between atoms: _3148  and  _3151
REMARK  920  A    between atoms: _3151  and  _3152
REMARK  921  A    between atoms: _3151  and  _3153
REMARK  922  A    between atoms: _3152  and  _3154
REMARK  923  A    between atoms: _3166  and  _3167
REMARK  924  A    between atoms: _3167  and  _3168
REMARK  925  A    between atoms: _3173  and  _3174
REMARK  926  A    between atoms: _3174  and  _3175
REMARK  927  A    between atoms: _3174  and  _3177
REMARK  928  A    between atoms: _3177  and  _3178
REMARK  929  A    between atoms: _3183  and  _3184
REMARK  930  A    between atoms: _3195  and  _3196
REMARK  931  A    between atoms: _3208  and  _3209
REMARK  932  A    between atoms: _3209  and  _3210
REMARK  933  A    between atoms: _3209  and  _3212
REMARK  934  A    between atoms: _3212  and  _3213
REMARK  935  A    between atoms: _3212  and  _3214
REMARK  936  A    between atoms: _3213  and  _3215
REMARK  937  A    between atoms: _3227  and  _3228
REMARK  938  A    between atoms: _3228  and  _3229
REMARK  939  A    between atoms: _3228  and  _3231
REMARK  940  A    between atoms: _3231  and  _3232
REMARK  941  A    between atoms: _3231  and  _3233
REMARK  942  A    between atoms: _3241  and  _3242
REMARK  943  A    between atoms: _3242  and  _3243
REMARK  944  A    between atoms: _3242  and  _3245
REMARK  945  A    between atoms: _3245  and  _3246
REMARK  946  A    between atoms: _3246  and  _3247
REMARK  947  A    between atoms: _3246  and  _3248
REMARK  948  A    between atoms: _3260  and  _3261
REMARK  949  A    between atoms: _3261  and  _3262
REMARK  950  A    between atoms: _3261  and  _3264
REMARK  951  A    between atoms: _3264  and  _3265
REMARK  952  A    between atoms: _3280  and  _3281
REMARK  953  A    between atoms: _3281  and  _3282
REMARK  954  A    between atoms: _3281  and  _3284
REMARK  955  A    between atoms: _3284  and  _3285
REMARK  956  A    between atoms: _3284  and  _3286
REMARK  957  A    between atoms: _3296  and  _3297
REMARK  958  A    between atoms: _3297  and  _3298
REMARK  959  A    between atoms: _3297  and  _3300
REMARK  960  A    between atoms: _3300  and  _3301
REMARK  961  A    between atoms: _3301  and  _3302
REMARK                            x       y       z     vdW  Elec       q    Type
REMARK                         _______ _______ _______ _____ _____    ______ ____
ROOT
ATOM      1  H   UNK     1       6.012  39.695  40.741  0.00  0.00    +0.000 HD
ENDROOT
TORSDOF 0
REMARK  Name = /Users/mlugowska/PhD/ML_residence_time_prediction/protein_files/5J20_protein.pdb
REMARK  961 active torsions:
REMARK  status: ('A' for Active; 'I' for Inactive)
REMARK    1  A    between atoms: _2  and  _3
REMARK    2  A    between atoms: _2  and  _5
REMARK    3  A    between atoms: _10  and  _11
REMARK    4  A    between atoms: _11  and  _12
REMARK    5  A    between atoms: _11  and  _14
REMARK    6  A    between atoms: _14  and  _15
REMARK    7  A    between atoms: _14  and  _16
REMARK    8  A    between atoms: _26  and  _27
REMARK    9  A    between atoms: _27  and  _28
REMARK   10  A    between atoms: _27  and  _30
REMARK   11  A    between atoms: _30  and  _31
REMARK   12  A    between atoms: _31  and  _32
REMARK   13  A    between atoms: _41  and  _42
REMARK   14  A    between atoms: _42  and  _43
REMARK   15  A    between atoms: _42  and  _45
REMARK   16  A    between atoms: _45  and  _46
REMARK   17  A    between atoms: _45  and  _47
REMARK   18  A    between atoms: _55  and  _56
REMARK   19  A    between atoms: _56  and  _57
REMARK   20  A    between atoms: _56  and  _59
REMARK   21  A    between atoms: _59  and  _60
REMARK   22  A    between atoms: _75  and  _76
REMARK   23  A    between atoms: _76  and  _77
REMARK   24  A    between atoms: _76  and  _79
REMARK   25  A    between atoms: _85  and  _86
REMARK   26  A    between atoms: _86  and  _87
REMARK   27  A    between atoms: _86  and  _89
REMARK   28  A    between atoms: _89  and  _90
REMARK   29  A    between atoms: _105  and  _106
REMARK   30  A    between atoms: _106  and  _107
REMARK   31  A    between atoms: _106  and  _109
REMARK   32  A    between atoms: _109  and  _110
REMARK   33  A    between atoms: _110  and  _111
REMARK   34  A    between atoms: _122  and  _123
REMARK   35  A    between atoms: _123  and  _124
REMARK   36  A    between atoms: _123  and  _126
REMARK   37  A    between atoms: _132  and  _133
REMARK   38  A    between atoms: _133  and  _134
REMARK   39  A    between atoms: _133  and  _136
REMARK   40  A    between atoms: _136  and  _137
REMARK   41  A    between atoms: _137  and  _138
REMARK   42  A    between atoms: _147  and  _148
REMARK   43  A    between atoms: _148  and  _149
REMARK   44  A    between atoms: _148  and  _151
REMARK   45  A    between atoms: _151  and  _152
REMARK   46  A    between atoms: _151  and  _153
REMARK   47  A    between atoms: _152  and  _154
REMARK   48  A    between atoms: _166  and  _167
REMARK   49  A    between atoms: _167  and  _168
REMARK   50  A    between atoms: _167  and  _170
REMARK   51  A    between atoms: _176  and  _177
REMARK   52  A    between atoms: _177  and  _178
REMARK   53  A    between atoms: _177  and  _180
REMARK   54  A    between atoms: _180  and  _181
REMARK   55  A    between atoms: _181  and  _182
REMARK   56  A    between atoms: _193  and  _194
REMARK   57  A    between atoms: _194  and  _195
REMARK   58  A    between atoms: _194  and  _197
REMARK   59  A    between atoms: _197  and  _198
REMARK   60  A    between atoms: _198  and  _199
REMARK   61  A    between atoms: _198  and  _200
REMARK   62  A    between atoms: _212  and  _213
REMARK   63  A    between atoms: _213  and  _214
REMARK   64  A    between atoms: _213  and  _216
REMARK   65  A    between atoms: _216  and  _217
REMARK   66  A    between atoms: _217  and  _218
REMARK   67  A    between atoms: _218  and  _219
REMARK   68  A    between atoms: _229  and  _230
REMARK   69  A    between atoms: _230  and  _231
REMARK   70  A    between atoms: _230  and  _233
REMARK   71  A    between atoms: _233  and  _234
REMARK   72  A    between atoms: _240  and  _241
REMARK   73  A    between atoms: _241  and  _242
REMARK   74  A    between atoms: _241  and  _244
REMARK   75  A    between atoms: _244  and  _245
REMARK   76  A    between atoms: _245  and  _246
REMARK   77  A    between atoms: _245  and  _247
REMARK   78  A    between atoms: _259  and  _260
REMARK   79  A    between atoms: _260  and  _261
REMARK   80  A    between atoms: _260  and  _263
REMARK   81  A    between atoms: _263  and  _264
REMARK   82  A    between atoms: _263  and  _265
REMARK   83  A    between atoms: _264  and  _266
REMARK   84  A    between atoms: _278  and  _279
REMARK   85  A    between atoms: _279  and  _280
REMARK   86  A    between atoms: _279  and  _282
REMARK   87  A    between atoms: _282  and  _283
REMARK   88  A    between atoms: _282  and  _284
REMARK   89  A    between atoms: _283  and  _285
REMARK   90  A    between atoms: _297  and  _298
REMARK   91  A    between atoms: _298  and  _299
REMARK   92  A    between atoms: _298  and  _301
REMARK   93  A    between atoms: _301  and  _302
REMARK   94  A    between atoms: _311  and  _312
REMARK   95  A    between atoms: _312  and  _313
REMARK   96  A    between atoms: _312  and  _315
REMARK   97  A    between atoms: _315  and  _316
REMARK   98  A    between atoms: _315  and  _317
REMARK   99  A    between atoms: _325  and  _326
REMARK  100  A    between atoms: _326  and  _327
REMARK  101  A    between atoms: _326  and  _329
REMARK  102  A    between atoms: _329  and  _330
REMARK  103  A    between atoms: _345  and  _346
REMARK  104  A    between atoms: _346  and  _347
REMARK  105  A    between atoms: _346  and  _349
REMARK  106  A    between atoms: _349  and  _350
REMARK  107  A    between atoms: _355  and  _356
REMARK  108  A    between atoms: _366  and  _367
REMARK  109  A    between atoms: _367  and  _368
REMARK  110  A    between atoms: _367  and  _370
REMARK  111  A    between atoms: _370  and  _371
REMARK  112  A    between atoms: _377  and  _378
REMARK  113  A    between atoms: _378  and  _379
REMARK  114  A    between atoms: _378  and  _381
REMARK  115  A    between atoms: _381  and  _382
REMARK  116  A    between atoms: _391  and  _392
REMARK  117  A    between atoms: _392  and  _393
REMARK  118  A    between atoms: _392  and  _395
REMARK  119  A    between atoms: _395  and  _396
REMARK  120  A    between atoms: _396  and  _397
REMARK  121  A    between atoms: _397  and  _398
REMARK  122  A    between atoms: _398  and  _399
REMARK  123  A    between atoms: _413  and  _414
REMARK  124  A    between atoms: _414  and  _415
REMARK  125  A    between atoms: _414  and  _417
REMARK  126  A    between atoms: _417  and  _418
REMARK  127  A    between atoms: _418  and  _419
REMARK  128  A    between atoms: _428  and  _429
REMARK  129  A    between atoms: _429  and  _430
REMARK  130  A    between atoms: _429  and  _432
REMARK  131  A    between atoms: _432  and  _433
REMARK  132  A    between atoms: _432  and  _434
REMARK  133  A    between atoms: _433  and  _435
REMARK  134  A    between atoms: _447  and  _448
REMARK  135  A    between atoms: _448  and  _449
REMARK  136  A    between atoms: _448  and  _451
REMARK  137  A    between atoms: _451  and  _452
REMARK  138  A    between atoms: _467  and  _468
REMARK  139  A    between atoms: _468  and  _469
REMARK  140  A    between atoms: _468  and  _471
REMARK  141  A    between atoms: _471  and  _472
REMARK  142  A    between atoms: _472  and  _473
REMARK  143  A    between atoms: _472  and  _474
REMARK  144  A    between atoms: _486  and  _487
REMARK  145  A    between atoms: _487  and  _488
REMARK  146  A    between atoms: _487  and  _490
REMARK  147  A    between atoms: _490  and  _491
REMARK  148  A    between atoms: _491  and  _492
REMARK  149  A    between atoms: _492  and  _493
REMARK  150  A    between atoms: _510  and  _511
REMARK  151  A    between atoms: _511  and  _512
REMARK  152  A    between atoms: _511  and  _514
REMARK  153  A    between atoms: _514  and  _515
REMARK  154  A    between atoms: _515  and  _516
REMARK  155  A    between atoms: _525  and  _526
REMARK  156  A    between atoms: _526  and  _527
REMARK  157  A    between atoms: _526  and  _529
REMARK  158  A    between atoms: _529  and  _530
REMARK  159  A    between atoms: _530  and  _531
REMARK  160  A    between atoms: _530  and  _532
REMARK  161  A    between atoms: _544  and  _545
REMARK  162  A    between atoms: _545  and  _546
REMARK  163  A    between atoms: _545  and  _548
REMARK  164  A    between atoms: _548  and  _549
REMARK  165  A    between atoms: _548  and  _550
REMARK  166  A    between atoms: _549  and  _551
REMARK  167  A    between atoms: _563  and  _564
REMARK  168  A    between atoms: _564  and  _565
REMARK  169  A    between atoms: _564  and  _567
REMARK  170  A    between atoms: _567  and  _568
REMARK  171  A    between atoms: _574  and  _575
REMARK  172  A    between atoms: _575  and  _576
REMARK  173  A    between atoms: _575  and  _578
REMARK  174  A    between atoms: _578  and  _579
REMARK  175  A    between atoms: _588  and  _589
REMARK  176  A    between atoms: _589  and  _590
REMARK  177  A    between atoms: _589  and  _592
REMARK  178  A    between atoms: _592  and  _593
REMARK  179  A    between atoms: _599  and  _600
REMARK  180  A    between atoms: _600  and  _601
REMARK  181  A    between atoms: _600  and  _603
REMARK  182  A    between atoms: _603  and  _604
REMARK  183  A    between atoms: _610  and  _611
REMARK  184  A    between atoms: _611  and  _612
REMARK  185  A    between atoms: _611  and  _614
REMARK  186  A    between atoms: _614  and  _615
REMARK  187  A    between atoms: _622  and  _623
REMARK  188  A    between atoms: _623  and  _624
REMARK  189  A    between atoms: _623  and  _626
REMARK  190  A    between atoms: _632  and  _633
REMARK  191  A    between atoms: _633  and  _634
REMARK  192  A    between atoms: _633  and  _636
REMARK  193  A    between atoms: _636  and  _637
REMARK  194  A    between atoms: _637  and  _638
REMARK  195  A    between atoms: _637  and  _639
REMARK  196  A    between atoms: _651  and  _652
REMARK  197  A    between atoms: _652  and  _653
REMARK  198  A    between atoms: _652  and  _655
REMARK  199  A    between atoms: _655  and  _656
REMARK  200  A    between atoms: _663  and  _664
REMARK  201  A    between atoms: _664  and  _665
REMARK  202  A    between atoms: _664  and  _667
REMARK  203  A    between atoms: _667  and  _668
REMARK  204  A    between atoms: _668  and  _669
REMARK  205  A    between atoms: _669  and  _670
REMARK  206  A    between atoms: _670  and  _671
REMARK  207  A    between atoms: _685  and  _686
REMARK  208  A    between atoms: _686  and  _687
REMARK  209  A    between atoms: _686  and  _689
REMARK  210  A    between atoms: _689  and  _690
REMARK  211  A    between atoms: _689  and  _691
REMARK  212  A    between atoms: _690  and  _692
REMARK  213  A    between atoms: _704  and  _705
REMARK  214  A    between atoms: _705  and  _706
REMARK  215  A    between atoms: _705  and  _708
REMARK  216  A    between atoms: _708  and  _709
REMARK  217  A    between atoms: _709  and  _710
REMARK  218  A    between atoms: _710  and  _711
REMARK  219  A    between atoms: _728  and  _729
REMARK  220  A    between atoms: _729  and  _730
REMARK  221  A    between atoms: _729  and  _732
REMARK  222  A    between atoms: _732  and  _733
REMARK  223  A    between atoms: _738  and  _739
REMARK  224  A    between atoms: _749  and  _750
REMARK  225  A    between atoms: _750  and  _751
REMARK  226  A    between atoms: _750  and  _753
REMARK  227  A    between atoms: _753  and  _754
REMARK  228  A    between atoms: _754  and  _755
REMARK  229  A    between atoms: _764  and  _765
REMARK  230  A    between atoms: _765  and  _766
REMARK  231  A    between atoms: _765  and  _768
REMARK  232  A    between atoms: _772  and  _773
REMARK  233  A    between atoms: _773  and  _774
REMARK  234  A    between atoms: _773  and  _776
REMARK  235  A    between atoms: _776  and  _777
REMARK  236  A    between atoms: _777  and  _778
REMARK  237  A    between atoms: _777  and  _779
REMARK  238  A    between atoms: _791  and  _792
REMARK  239  A    between atoms: _792  and  _793
REMARK  240  A    between atoms: _792  and  _795
REMARK  241  A    between atoms: _795  and  _796
REMARK  242  A    between atoms: _795  and  _797
REMARK  243  A    between atoms: _805  and  _806
REMARK  244  A    between atoms: _806  and  _807
REMARK  245  A    between atoms: _806  and  _809
REMARK  246  A    between atoms: _809  and  _810
REMARK  247  A    between atoms: _818  and  _819
REMARK  248  A    between atoms: _831  and  _832
REMARK  249  A    between atoms: _832  and  _833
REMARK  250  A    between atoms: _832  and  _835
REMARK  251  A    between atoms: _835  and  _836
REMARK  252  A    between atoms: _842  and  _843
REMARK  253  A    between atoms: _843  and  _844
REMARK  254  A    between atoms: _843  and  _846
REMARK  255  A    between atoms: _846  and  _847
REMARK  256  A    between atoms: _847  and  _848
REMARK  257  A    between atoms: _848  and  _849
REMARK  258  A    between atoms: _849  and  _850
REMARK  259  A    between atoms: _864  and  _865
REMARK  260  A    between atoms: _865  and  _866
REMARK  261  A    between atoms: _865  and  _868
REMARK  262  A    between atoms: _868  and  _869
REMARK  263  A    between atoms: _869  and  _870
REMARK  264  A    between atoms: _869  and  _871
REMARK  265  A    between atoms: _883  and  _884
REMARK  266  A    between atoms: _884  and  _885
REMARK  267  A    between atoms: _884  and  _887
REMARK  268  A    between atoms: _887  and  _888
REMARK  269  A    between atoms: _895  and  _896
REMARK  270  A    between atoms: _896  and  _897
REMARK  271  A    between atoms: _896  and  _899
REMARK  272  A    between atoms: _899  and  _900
REMARK  273  A    between atoms: _906  and  _907
REMARK  274  A    between atoms: _907  and  _908
REMARK  275  A    between atoms: _913  and  _914
REMARK  276  A    between atoms: _914  and  _915
REMARK  277  A    between atoms: _914  and  _917
REMARK  278  A    between atoms: _917  and  _918
REMARK  279  A    between atoms: _918  and  _919
REMARK  280  A    between atoms: _919  and  _920
REMARK  281  A    between atoms: _920  and  _921
REMARK  282  A    between atoms: _935  and  _936
REMARK  283  A    between atoms: _936  and  _937
REMARK  284  A    between atoms: _936  and  _939
REMARK  285  A    between atoms: _939  and  _940
REMARK  286  A    between atoms: _940  and  _941
REMARK  287  A    between atoms: _950  and  _951
REMARK  288  A    between atoms: _951  and  _952
REMARK  289  A    between atoms: _951  and  _954
REMARK  290  A    between atoms: _954  and  _955
REMARK  291  A    between atoms: _955  and  _956
REMARK  292  A    between atoms: _955  and  _957
REMARK  293  A    between atoms: _969  and  _970
REMARK  294  A    between atoms: _970  and  _971
REMARK  295  A    between atoms: _970  and  _973
REMARK  296  A    between atoms: _973  and  _974
REMARK  297  A    between atoms: _986  and  _987
REMARK  298  A    between atoms: _987  and  _988
REMARK  299  A    between atoms: _987  and  _990
REMARK  300  A    between atoms: _990  and  _991
REMARK  301  A    between atoms: _990  and  _992
REMARK  302  A    between atoms: _991  and  _993
REMARK  303  A    between atoms: _1005  and  _1006
REMARK  304  A    between atoms: _1006  and  _1007
REMARK  305  A    between atoms: _1006  and  _1009
REMARK  306  A    between atoms: _1009  and  _1010
REMARK  307  A    between atoms: _1019  and  _1020
REMARK  308  A    between atoms: _1020  and  _1021
REMARK  309  A    between atoms: _1020  and  _1023
REMARK  310  A    between atoms: _1023  and  _1024
REMARK  311  A    between atoms: _1024  and  _1025
REMARK  312  A    between atoms: _1024  and  _1026
REMARK  313  A    between atoms: _1038  and  _1039
REMARK  314  A    between atoms: _1039  and  _1040
REMARK  315  A    between atoms: _1039  and  _1042
REMARK  316  A    between atoms: _1042  and  _1043
REMARK  317  A    between atoms: _1042  and  _1044
REMARK  318  A    between atoms: _1043  and  _1045
REMARK  319  A    between atoms: _1058  and  _1059
REMARK  320  A    between atoms: _1071  and  _1072
REMARK  321  A    between atoms: _1072  and  _1073
REMARK  322  A    between atoms: _1072  and  _1075
REMARK  323  A    between atoms: _1075  and  _1076
REMARK  324  A    between atoms: _1085  and  _1086
REMARK  325  A    between atoms: _1086  and  _1087
REMARK  326  A    between atoms: _1086  and  _1089
REMARK  327  A    between atoms: _1089  and  _1090
REMARK  328  A    between atoms: _1090  and  _1091
REMARK  329  A    between atoms: _1091  and  _1092
REMARK  330  A    between atoms: _1092  and  _1093
REMARK  331  A    between atoms: _1107  and  _1108
REMARK  332  A    between atoms: _1108  and  _1109
REMARK  333  A    between atoms: _1108  and  _1111
REMARK  334  A    between atoms: _1111  and  _1112
REMARK  335  A    between atoms: _1112  and  _1113
REMARK  336  A    between atoms: _1124  and  _1125
REMARK  337  A    between atoms: _1125  and  _1126
REMARK  338  A    between atoms: _1125  and  _1128
REMARK  339  A    between atoms: _1128  and  _1129
REMARK  340  A    between atoms: _1136  and  _1137
REMARK  341  A    between atoms: _1137  and  _1138
REMARK  342  A    between atoms: _1137  and  _1140
REMARK  343  A    between atoms: _1140  and  _1141
REMARK  344  A    between atoms: _1141  and  _1142
REMARK  345  A    between atoms: _1142  and  _1143
REMARK  346  A    between atoms: _1160  and  _1161
REMARK  347  A    between atoms: _1161  and  _1162
REMARK  348  A    between atoms: _1161  and  _1164
REMARK  349  A    between atoms: _1164  and  _1165
REMARK  350  A    between atoms: _1164  and  _1166
REMARK  351  A    between atoms: _1174  and  _1175
REMARK  352  A    between atoms: _1175  and  _1176
REMARK  353  A    between atoms: _1175  and  _1178
REMARK  354  A    between atoms: _1178  and  _1179
REMARK  355  A    between atoms: _1179  and  _1180
REMARK  356  A    between atoms: _1179  and  _1181
REMARK  357  A    between atoms: _1193  and  _1194
REMARK  358  A    between atoms: _1194  and  _1195
REMARK  359  A    between atoms: _1194  and  _1197
REMARK  360  A    between atoms: _1197  and  _1198
REMARK  361  A    between atoms: _1197  and  _1199
REMARK  362  A    between atoms: _1207  and  _1208
REMARK  363  A    between atoms: _1208  and  _1209
REMARK  364  A    between atoms: _1208  and  _1211
REMARK  365  A    between atoms: _1211  and  _1212
REMARK  366  A    between atoms: _1211  and  _1213
REMARK  367  A    between atoms: _1212  and  _1214
REMARK  368  A    between atoms: _1226  and  _1227
REMARK  369  A    between atoms: _1227  and  _1228
REMARK  370  A    between atoms: _1227  and  _1230
REMARK  371  A    between atoms: _1230  and  _1231
REMARK  372  A    between atoms: _1230  and  _1232
REMARK  373  A    between atoms: _1242  and  _1243
REMARK  374  A    between atoms: _1243  and  _1244
REMARK  375  A    between atoms: _1243  and  _1246
REMARK  376  A    between atoms: _1246  and  _1247
REMARK  377  A    between atoms: _1254  and  _1255
REMARK  378  A    between atoms: _1255  and  _1256
REMARK  379  A    between atoms: _1255  and  _1258
REMARK  380  A    between atoms: _1258  and  _1259
REMARK  381  A    between atoms: _1258  and  _1260
REMARK  382  A    between atoms: _1268  and  _1269
REMARK  383  A    between atoms: _1269  and  _1270
REMARK  384  A    between atoms: _1275  and  _1276
REMARK  385  A    between atoms: _1276  and  _1277
REMARK  386  A    between atoms: _1276  and  _1279
REMARK  387  A    between atoms: _1279  and  _1280
REMARK  388  A    between atoms: _1279  and  _1281
REMARK  389  A    between atoms: _1280  and  _1282
REMARK  390  A    between atoms: _1294  and  _1295
REMARK  391  A    between atoms: _1295  and  _1296
REMARK  392  A    between atoms: _1301  and  _1302
REMARK  393  A    between atoms: _1302  and  _1303
REMARK  394  A    between atoms: _1302  and  _1305
REMARK  395  A    between atoms: _1305  and  _1306
REMARK  396  A    between atoms: _1306  and  _1307
REMARK  397  A    between atoms: _1307  and  _1308
REMARK  398  A    between atoms: _1318  and  _1319
REMARK  399  A    between atoms: _1319  and  _1320
REMARK  400  A    between atoms: _1319  and  _1322
REMARK  401  A    between atoms: _1322  and  _1323
REMARK  402  A    between atoms: _1322  and  _1324
REMARK  403  A    between atoms: _1332  and  _1333
REMARK  404  A    between atoms: _1333  and  _1334
REMARK  405  A    between atoms: _1333  and  _1336
REMARK  406  A    between atoms: _1336  and  _1337
REMARK  407  A    between atoms: _1337  and  _1338
REMARK  408  A    between atoms: _1338  and  _1339
REMARK  409  A    between atoms: _1339  and  _1340
REMARK  410  A    between atoms: _1354  and  _1355
REMARK  411  A    between atoms: _1355  and  _1356
REMARK  412  A    between atoms: _1355  and  _1358
REMARK  413  A    between atoms: _1364  and  _1365
REMARK  414  A    between atoms: _1365  and  _1366
REMARK  415  A    between atoms: _1365  and  _1368
REMARK  416  A    between atoms: _1368  and  _1369
REMARK  417  A    between atoms: _1376  and  _1377
REMARK  418  A    between atoms: _1377  and  _1378
REMARK  419  A    between atoms: _1377  and  _1380
REMARK  420  A    between atoms: _1380  and  _1381
REMARK  421  A    between atoms: _1381  and  _1382
REMARK  422  A    between atoms: _1381  and  _1383
REMARK  423  A    between atoms: _1395  and  _1396
REMARK  424  A    between atoms: _1396  and  _1399
REMARK  425  A    between atoms: _1399  and  _1400
REMARK  426  A    between atoms: _1399  and  _1401
REMARK  427  A    between atoms: _1400  and  _1402
REMARK  428  A    between atoms: _1422  and  _1425
REMARK  429  A    between atoms: _1424  and  _1428
REMARK  430  A    between atoms: _1425  and  _1427
REMARK  431  A    between atoms: _1443  and  _1444
REMARK  432  A    between atoms: _1443  and  _1446
REMARK  433  A    between atoms: _1446  and  _1447
REMARK  434  A    between atoms: _1457  and  _1458
REMARK  435  A    between atoms: _1458  and  _1459
REMARK  436  A    between atoms: _1458  and  _1461
REMARK  437  A    between atoms: _1461  and  _1462
REMARK  438  A    between atoms: _1462  and  _1463
REMARK  439  A    between atoms: _1462  and  _1464
REMARK  440  A    between atoms: _1476  and  _1477
REMARK  441  A    between atoms: _1477  and  _1478
REMARK  442  A    between atoms: _1483  and  _1484
REMARK  443  A    between atoms: _1484  and  _1485
REMARK  444  A    between atoms: _1484  and  _1487
REMARK  445  A    between atoms: _1487  and  _1488
REMARK  446  A    between atoms: _1487  and  _1489
REMARK  447  A    between atoms: _1497  and  _1498
REMARK  448  A    between atoms: _1498  and  _1499
REMARK  449  A    between atoms: _1498  and  _1501
REMARK  450  A    between atoms: _1501  and  _1502
REMARK  451  A    between atoms: _1501  and  _1503
REMARK  452  A    between atoms: _1502  and  _1504
REMARK  453  A    between atoms: _1516  and  _1517
REMARK  454  A    between atoms: _1517  and  _1518
REMARK  455  A    between atoms: _1517  and  _1520
REMARK  456  A    between atoms: _1526  and  _1527
REMARK  457  A    between atoms: _1527  and  _1528
REMARK  458  A    between atoms: _1527  and  _1530
REMARK  459  A    between atoms: _1530  and  _1531
REMARK  460  A    between atoms: _1531  and  _1532
REMARK  461  A    between atoms: _1532  and  _1533
REMARK  462  A    between atoms: _1533  and  _1534
REMARK  463  A    between atoms: _1548  and  _1549
REMARK  464  A    between atoms: _1549  and  _1550
REMARK  465  A    between atoms: _1549  and  _1552
REMARK  466  A    between atoms: _1552  and  _1553
REMARK  467  A    between atoms: _1559  and  _1560
REMARK  468  A    between atoms: _1560  and  _1561
REMARK  469  A    between atoms: _1566  and  _1567
REMARK  470  A    between atoms: _1567  and  _1568
REMARK  471  A    between atoms: _1567  and  _1570
REMARK  472  A    between atoms: _1570  and  _1571
REMARK  473  A    between atoms: _1570  and  _1572
REMARK  474  A    between atoms: _1580  and  _1581
REMARK  475  A    between atoms: _1581  and  _1582
REMARK  476  A    between atoms: _1581  and  _1584
REMARK  477  A    between atoms: _1584  and  _1585
REMARK  478  A    between atoms: _1585  and  _1586
REMARK  479  A    between atoms: _1586  and  _1587
REMARK  480  A    between atoms: _1587  and  _1588
REMARK  481  A    between atoms: _1602  and  _1603
REMARK  482  A    between atoms: _1603  and  _1604
REMARK  483  A    between atoms: _1603  and  _1606
REMARK  484  A    between atoms: _1612  and  _1613
REMARK  485  A    between atoms: _1613  and  _1614
REMARK  486  A    between atoms: _1613  and  _1616
REMARK  487  A    between atoms: _1616  and  _1617
REMARK  488  A    between atoms: _1632  and  _1633
REMARK  489  A    between atoms: _1633  and  _1634
REMARK  490  A    between atoms: _1633  and  _1636
REMARK  491  A    between atoms: _1636  and  _1637
REMARK  492  A    between atoms: _1637  and  _1638
REMARK  493  A    between atoms: _1638  and  _1639
REMARK  494  A    between atoms: _1649  and  _1650
REMARK  495  A    between atoms: _1650  and  _1651
REMARK  496  A    between atoms: _1650  and  _1653
REMARK  497  A    between atoms: _1653  and  _1654
REMARK  498  A    between atoms: _1654  and  _1655
REMARK  499  A    between atoms: _1664  and  _1665
REMARK  500  A    between atoms: _1665  and  _1666
REMARK  501  A    between atoms: _1665  and  _1668
REMARK  502  A    between atoms: _1674  and  _1675
REMARK  503  A    between atoms: _1675  and  _1676
REMARK  504  A    between atoms: _1675  and  _1678
REMARK  505  A    between atoms: _1678  and  _1679
REMARK  506  A    between atoms: _1679  and  _1680
REMARK  507  A    between atoms: _1679  and  _1681
REMARK  508  A    between atoms: _1693  and  _1694
REMARK  509  A    between atoms: _1694  and  _1695
REMARK  510  A    between atoms: _1694  and  _1697
REMARK  511  A    between atoms: _1697  and  _1698
REMARK  512  A    between atoms: _1698  and  _1699
REMARK  513  A    between atoms: _1710  and  _1711
REMARK  514  A    between atoms: _1711  and  _1712
REMARK  515  A    between atoms: _1711  and  _1714
REMARK  516  A    between atoms: _1720  and  _1721
REMARK  517  A    between atoms: _1721  and  _1722
REMARK  518  A    between atoms: _1727  and  _1728
REMARK  519  A    between atoms: _1728  and  _1729
REMARK  520  A    between atoms: _1728  and  _1731
REMARK  521  A    between atoms: _1737  and  _1738
REMARK  522  A    between atoms: _1738  and  _1739
REMARK  523  A    between atoms: _1738  and  _1741
REMARK  524  A    between atoms: _1741  and  _1742
REMARK  525  A    between atoms: _1749  and  _1750
REMARK  526  A    between atoms: _1750  and  _1751
REMARK  527  A    between atoms: _1750  and  _1753
REMARK  528  A    between atoms: _1753  and  _1754
REMARK  529  A    between atoms: _1753  and  _1755
REMARK  530  A    between atoms: _1754  and  _1756
REMARK  531  A    between atoms: _1768  and  _1769
REMARK  532  A    between atoms: _1769  and  _1772
REMARK  533  A    between atoms: _1772  and  _1773
REMARK  534  A    between atoms: _1791  and  _1793
REMARK  535  A    between atoms: _1792  and  _1794
REMARK  536  A    between atoms: _1814  and  _1815
REMARK  537  A    between atoms: _1814  and  _1817
REMARK  538  A    between atoms: _1817  and  _1818
REMARK  539  A    between atoms: _1817  and  _1819
REMARK  540  A    between atoms: _1818  and  _1820
REMARK  541  A    between atoms: _1833  and  _1834
REMARK  542  A    between atoms: _1834  and  _1835
REMARK  543  A    between atoms: _1840  and  _1841
REMARK  544  A    between atoms: _1841  and  _1842
REMARK  545  A    between atoms: _1841  and  _1844
REMARK  546  A    between atoms: _1844  and  _1845
REMARK  547  A    between atoms: _1845  and  _1846
REMARK  548  A    between atoms: _1857  and  _1858
REMARK  549  A    between atoms: _1858  and  _1859
REMARK  550  A    between atoms: _1858  and  _1861
REMARK  551  A    between atoms: _1861  and  _1862
REMARK  552  A    between atoms: _1877  and  _1878
REMARK  553  A    between atoms: _1878  and  _1879
REMARK  554  A    between atoms: _1884  and  _1885
REMARK  555  A    between atoms: _1885  and  _1886
REMARK  556  A    between atoms: _1885  and  _1888
REMARK  557  A    between atoms: _1888  and  _1889
REMARK  558  A    between atoms: _1888  and  _1890
REMARK  559  A    between atoms: _1900  and  _1901
REMARK  560  A    between atoms: _1901  and  _1902
REMARK  561  A    between atoms: _1907  and  _1908
REMARK  562  A    between atoms: _1908  and  _1909
REMARK  563  A    between atoms: _1908  and  _1911
REMARK  564  A    between atoms: _1911  and  _1912
REMARK  565  A    between atoms: _1927  and  _1928
REMARK  566  A    between atoms: _1928  and  _1929
REMARK  567  A    between atoms: _1928  and  _1931
REMARK  568  A    between atoms: _1931  and  _1932
REMARK  569  A    between atoms: _1937  and  _1938
REMARK  570  A    between atoms: _1948  and  _1949
REMARK  571  A    between atoms: _1949  and  _1950
REMARK  572  A    between atoms: _1949  and  _1952
REMARK  573  A    between atoms: _1952  and  _1953
REMARK  574  A    between atoms: _1959  and  _1960
REMARK  575  A    between atoms: _1960  and  _1961
REMARK  576  A    between atoms: _1960  and  _1963
REMARK  577  A    between atoms: _1969  and  _1970
REMARK  578  A    between atoms: _1970  and  _1971
REMARK  579  A    between atoms: _1970  and  _1973
REMARK  580  A    between atoms: _1973  and  _1974
REMARK  581  A    between atoms: _1979  and  _1980
REMARK  582  A    between atoms: _1990  and  _1991
REMARK  583  A    between atoms: _1991  and  _1992
REMARK  584  A    between atoms: _1991  and  _1994
REMARK  585  A    between atoms: _1994  and  _1995
REMARK  586  A    between atoms: _1995  and  _1996
REMARK  587  A    between atoms: _1995  and  _1997
REMARK  588  A    between atoms: _2009  and  _2010
REMARK  589  A    between atoms: _2010  and  _2011
REMARK  590  A    between atoms: _2010  and  _2013
REMARK  591  A    between atoms: _2013  and  _2014
REMARK  592  A    between atoms: _2013  and  _2015
REMARK  593  A    between atoms: _2025  and  _2026
REMARK  594  A    between atoms: _2026  and  _2027
REMARK  595  A    between atoms: _2026  and  _2029
REMARK  596  A    between atoms: _2035  and  _2036
REMARK  597  A    between atoms: _2036  and  _2037
REMARK  598  A    between atoms: _2036  and  _2039
REMARK  599  A    between atoms: _2039  and  _2040
REMARK  600  A    between atoms: _2040  and  _2041
REMARK  601  A    between atoms: _2050  and  _2051
REMARK  602  A    between atoms: _2051  and  _2052
REMARK  603  A    between atoms: _2051  and  _2054
REMARK  604  A    between atoms: _2054  and  _2055
REMARK  605  A    between atoms: _2055  and  _2056
REMARK  606  A    between atoms: _2056  and  _2057
REMARK  607  A    between atoms: _2057  and  _2058
REMARK  608  A    between atoms: _2072  and  _2073
REMARK  609  A    between atoms: _2073  and  _2074
REMARK  610  A    between atoms: _2073  and  _2076
REMARK  611  A    between atoms: _2076  and  _2077
REMARK  612  A    between atoms: _2076  and  _2078
REMARK  613  A    between atoms: _2088  and  _2089
REMARK  614  A    between atoms: _2089  and  _2090
REMARK  615  A    between atoms: _2089  and  _2092
REMARK  616  A    between atoms: _2092  and  _2093
REMARK  617  A    between atoms: _2092  and  _2094
REMARK  618  A    between atoms: _2102  and  _2103
REMARK  619  A    between atoms: _2103  and  _2104
REMARK  620  A    between atoms: _2103  and  _2106
REMARK  621  A    between atoms: _2106  and  _2107
REMARK  622  A    between atoms: _2106  and  _2108
REMARK  623  A    between atoms: _2118  and  _2119
REMARK  624  A    between atoms: _2119  and  _2120
REMARK  625  A    between atoms: _2119  and  _2122
REMARK  626  A    between atoms: _2122  and  _2123
REMARK  627  A    between atoms: _2122  and  _2124
REMARK  628  A    between atoms: _2123  and  _2125
REMARK  629  A    between atoms: _2137  and  _2138
REMARK  630  A    between atoms: _2138  and  _2139
REMARK  631  A    between atoms: _2138  and  _2141
REMARK  632  A    between atoms: _2141  and  _2142
REMARK  633  A    between atoms: _2141  and  _2143
REMARK  634  A    between atoms: _2151  and  _2152
REMARK  635  A    between atoms: _2152  and  _2153
REMARK  636  A    between atoms: _2152  and  _2155
REMARK  637  A    between atoms: _2155  and  _2156
REMARK  638  A    between atoms: _2156  and  _2157
REMARK  639  A    between atoms: _2157  and  _2158
REMARK  640  A    between atoms: _2158  and  _2159
REMARK  641  A    between atoms: _2173  and  _2174
REMARK  642  A    between atoms: _2174  and  _2175
REMARK  643  A    between atoms: _2174  and  _2177
REMARK  644  A    between atoms: _2177  and  _2178
REMARK  645  A    between atoms: _2190  and  _2191
REMARK  646  A    between atoms: _2191  and  _2192
REMARK  647  A    between atoms: _2191  and  _2194
REMARK  648  A    between atoms: _2194  and  _2195
REMARK  649  A    between atoms: _2204  and  _2205
REMARK  650  A    between atoms: _2205  and  _2206
REMARK  651  A    between atoms: _2205  and  _2208
REMARK  652  A    between atoms: _2208  and  _2209
REMARK  653  A    between atoms: _2216  and  _2217
REMARK  654  A    between atoms: _2217  and  _2218
REMARK  655  A    between atoms: _2217  and  _2220
REMARK  656  A    between atoms: _2220  and  _2221
REMARK  657  A    between atoms: _2228  and  _2229
REMARK  658  A    between atoms: _2229  and  _2230
REMARK  659  A    between atoms: _2229  and  _2232
REMARK  660  A    between atoms: _2232  and  _2233
REMARK  661  A    between atoms: _2233  and  _2234
REMARK  662  A    between atoms: _2243  and  _2244
REMARK  663  A    between atoms: _2244  and  _2245
REMARK  664  A    between atoms: _2244  and  _2247
REMARK  665  A    between atoms: _2247  and  _2248
REMARK  666  A    between atoms: _2248  and  _2249
REMARK  667  A    between atoms: _2260  and  _2261
REMARK  668  A    between atoms: _2261  and  _2262
REMARK  669  A    between atoms: _2261  and  _2264
REMARK  670  A    between atoms: _2264  and  _2265
REMARK  671  A    between atoms: _2270  and  _2271
REMARK  672  A    between atoms: _2281  and  _2282
REMARK  673  A    between atoms: _2282  and  _2283
REMARK  674  A    between atoms: _2282  and  _2285
REMARK  675  A    between atoms: _2291  and  _2292
REMARK  676  A    between atoms: _2292  and  _2293
REMARK  677  A    between atoms: _2292  and  _2295
REMARK  678  A    between atoms: _2295  and  _2296
REMARK  679  A    between atoms: _2315  and  _2316
REMARK  680  A    between atoms: _2316  and  _2317
REMARK  681  A    between atoms: _2316  and  _2319
REMARK  682  A    between atoms: _2319  and  _2320
REMARK  683  A    between atoms: _2320  and  _2321
REMARK  684  A    between atoms: _2330  and  _2331
REMARK  685  A    between atoms: _2331  and  _2332
REMARK  686  A    between atoms: _2331  and  _2334
REMARK  687  A    between atoms: _2334  and  _2335
REMARK  688  A    between atoms: _2341  and  _2342
REMARK  689  A    between atoms: _2342  and  _2343
REMARK  690  A    between atoms: _2342  and  _2345
REMARK  691  A    between atoms: _2345  and  _2346
REMARK  692  A    between atoms: _2352  and  _2353
REMARK  693  A    between atoms: _2353  and  _2354
REMARK  694  A    between atoms: _2353  and  _2356
REMARK  695  A    between atoms: _2362  and  _2363
REMARK  696  A    between atoms: _2363  and  _2364
REMARK  697  A    between atoms: _2369  and  _2370
REMARK  698  A    between atoms: _2370  and  _2371
REMARK  699  A    between atoms: _2376  and  _2377
REMARK  700  A    between atoms: _2377  and  _2378
REMARK  701  A    between atoms: _2377  and  _2380
REMARK  702  A    between atoms: _2380  and  _2381
REMARK  703  A    between atoms: _2387  and  _2388
REMARK  704  A    between atoms: _2388  and  _2389
REMARK  705  A    between atoms: _2388  and  _2391
REMARK  706  A    between atoms: _2391  and  _2392
REMARK  707  A    between atoms: _2407  and  _2408
REMARK  708  A    between atoms: _2408  and  _2409
REMARK  709  A    between atoms: _2408  and  _2411
REMARK  710  A    between atoms: _2411  and  _2412
REMARK  711  A    between atoms: _2411  and  _2413
REMARK  712  A    between atoms: _2421  and  _2422
REMARK  713  A    between atoms: _2422  and  _2423
REMARK  714  A    between atoms: _2422  and  _2425
REMARK  715  A    between atoms: _2425  and  _2426
REMARK  716  A    between atoms: _2425  and  _2427
REMARK  717  A    between atoms: _2437  and  _2438
REMARK  718  A    between atoms: _2438  and  _2439
REMARK  719  A    between atoms: _2438  and  _2441
REMARK  720  A    between atoms: _2441  and  _2442
REMARK  721  A    between atoms: _2442  and  _2443
REMARK  722  A    between atoms: _2443  and  _2444
REMARK  723  A    between atoms: _2461  and  _2462
REMARK  724  A    between atoms: _2462  and  _2463
REMARK  725  A    between atoms: _2462  and  _2465
REMARK  726  A    between atoms: _2465  and  _2466
REMARK  727  A    between atoms: _2465  and  _2467
REMARK  728  A    between atoms: _2475  and  _2476
REMARK  729  A    between atoms: _2476  and  _2477
REMARK  730  A    between atoms: _2476  and  _2479
REMARK  731  A    between atoms: _2479  and  _2480
REMARK  732  A    between atoms: _2487  and  _2488
REMARK  733  A    between atoms: _2488  and  _2489
REMARK  734  A    between atoms: _2488  and  _2491
REMARK  735  A    between atoms: _2491  and  _2492
REMARK  736  A    between atoms: _2491  and  _2493
REMARK  737  A    between atoms: _2501  and  _2502
REMARK  738  A    between atoms: _2502  and  _2503
REMARK  739  A    between atoms: _2508  and  _2509
REMARK  740  A    between atoms: _2509  and  _2510
REMARK  741  A    between atoms: _2509  and  _2512
REMARK  742  A    between atoms: _2512  and  _2513
REMARK  743  A    between atoms: _2513  and  _2514
REMARK  744  A    between atoms: _2524  and  _2525
REMARK  745  A    between atoms: _2537  and  _2538
REMARK  746  A    between atoms: _2538  and  _2539
REMARK  747  A    between atoms: _2538  and  _2541
REMARK  748  A    between atoms: _2541  and  _2542
REMARK  749  A    between atoms: _2542  and  _2543
REMARK  750  A    between atoms: _2543  and  _2544
REMARK  751  A    between atoms: _2554  and  _2555
REMARK  752  A    between atoms: _2555  and  _2556
REMARK  753  A    between atoms: _2561  and  _2562
REMARK  754  A    between atoms: _2562  and  _2563
REMARK  755  A    between atoms: _2562  and  _2565
REMARK  756  A    between atoms: _2565  and  _2566
REMARK  757  A    between atoms: _2566  and  _2567
REMARK  758  A    between atoms: _2567  and  _2568
REMARK  759  A    between atoms: _2585  and  _2586
REMARK  760  A    between atoms: _2586  and  _2587
REMARK  761  A    between atoms: _2592  and  _2593
REMARK  762  A    between atoms: _2593  and  _2594
REMARK  763  A    between atoms: _2593  and  _2596
REMARK  764  A    between atoms: _2596  and  _2597
REMARK  765  A    between atoms: _2596  and  _2598
REMARK  766  A    between atoms: _2606  and  _2607
REMARK  767  A    between atoms: _2607  and  _2608
REMARK  768  A    between atoms: _2607  and  _2610
REMARK  769  A    between atoms: _2610  and  _2611
REMARK  770  A    between atoms: _2611  and  _2612
REMARK  771  A    between atoms: _2612  and  _2613
REMARK  772  A    between atoms: _2613  and  _2614
REMARK  773  A    between atoms: _2628  and  _2629
REMARK  774  A    between atoms: _2629  and  _2630
REMARK  775  A    between atoms: _2629  and  _2632
REMARK  776  A    between atoms: _2632  and  _2633
REMARK  777  A    between atoms: _2632  and  _2634
REMARK  778  A    between atoms: _2644  and  _2645
REMARK  779  A    between atoms: _2645  and  _2646
REMARK  780  A    between atoms: _2645  and  _2648
REMARK  781  A    between atoms: _2648  and  _2649
REMARK  782  A    between atoms: _2648  and  _2650
REMARK  783  A    between atoms: _2649  and  _2651
REMARK  784  A    between atoms: _2663  and  _2664
REMARK  785  A    between atoms: _2664  and  _2665
REMARK  786  A    between atoms: _2664  and  _2667
REMARK  787  A    between atoms: _2667  and  _2668
REMARK  788  A    between atoms: _2668  and  _2669
REMARK  789  A    between atoms: _2668  and  _2670
REMARK  790  A    between atoms: _2682  and  _2683
REMARK  791  A    between atoms: _2683  and  _2684
REMARK  792  A    between atoms: _2683  and  _2686
REMARK  793  A    between atoms: _2686  and  _2687
REMARK  794  A    between atoms: _2699  and  _2700
REMARK  795  A    between atoms: _2700  and  _2701
REMARK  796  A    between atoms: _2700  and  _2703
REMARK  797  A    between atoms: _2703  and  _2704
REMARK  798  A    between atoms: _2704  and  _2705
REMARK  799  A    between atoms: _2704  and  _2706
REMARK  800  A    between atoms: _2718  and  _2719
REMARK  801  A    between atoms: _2719  and  _2720
REMARK  802  A    between atoms: _2719  and  _2722
REMARK  803  A    between atoms: _2722  and  _2723
REMARK  804  A    between atoms: _2723  and  _2724
REMARK  805  A    between atoms: _2724  and  _2725
REMARK  806  A    between atoms: _2725  and  _2726
REMARK  807  A    between atoms: _2740  and  _2741
REMARK  808  A    between atoms: _2741  and  _2742
REMARK  809  A    between atoms: _2741  and  _2744
REMARK  810  A    between atoms: _2744  and  _2745
REMARK  811  A    between atoms: _2745  and  _2746
REMARK  812  A    between atoms: _2755  and  _2756
REMARK  813  A    between atoms: _2756  and  _2757
REMARK  814  A    between atoms: _2756  and  _2759
REMARK  815  A    between atoms: _2759  and  _2760
REMARK  816  A    between atoms: _2767  and  _2768
REMARK  817  A    between atoms: _2768  and  _2769
REMARK  818  A    between atoms: _2768  and  _2771
REMARK  819  A    between atoms: _2771  and  _2772
REMARK  820  A    between atoms: _2772  and  _2773
REMARK  821  A    between atoms: _2784  and  _2785
REMARK  822  A    between atoms: _2785  and  _2786
REMARK  823  A    between atoms: _2785  and  _2788
REMARK  824  A    between atoms: _2788  and  _2789
REMARK  825  A    between atoms: _2788  and  _2790
REMARK  826  A    between atoms: _2798  and  _2799
REMARK  827  A    between atoms: _2799  and  _2800
REMARK  828  A    between atoms: _2799  and  _2802
REMARK  829  A    between atoms: _2802  and  _2803
REMARK  830  A    between atoms: _2803  and  _2804
REMARK  831  A    between atoms: _2813  and  _2814
REMARK  832  A    between atoms: _2814  and  _2815
REMARK  833  A    between atoms: _2814  and  _2817
REMARK  834  A    between atoms: _2817  and  _2818
REMARK  835  A    between atoms: _2823  and  _2824
REMARK  836  A    between atoms: _2834  and  _2835
REMARK  837  A    between atoms: _2835  and  _2838
REMARK  838  A    between atoms: _2838  and  _2839
REMARK  839  A    between atoms: _2839  and  _2840
REMARK  840  A    between atoms: _2839  and  _2841
REMARK  841  A    between atoms: _2884  and  _2885
REMARK  842  A    between atoms: _2884  and  _2887
REMARK  843  A    between atoms: _2887  and  _2888
REMARK  844  A    between atoms: _2888  and  _2889
REMARK  845  A    between atoms: _2899  and  _2900
REMARK  846  A    between atoms: _2900  and  _2901
REMARK  847  A    between atoms: _2900  and  _2903
REMARK  848  A    between atoms: _2903  and  _2904
REMARK  849  A    between atoms: _2904  and  _2905
REMARK  850  A    between atoms: _2905  and  _2906
REMARK  851  A    between atoms: _2923  and  _2924
REMARK  852  A    between atoms: _2924  and  _2925
REMARK  853  A    between atoms: _2924  and  _2927
REMARK  854  A    between atoms: _2927  and  _2928
REMARK  855  A    between atoms: _2928  and  _2929
REMARK  856  A    between atoms: _2929  and  _2930
REMARK  857  A    between atoms: _2947  and  _2948
REMARK  858  A    between atoms: _2948  and  _2949
REMARK  859  A    between atoms: _2948  and  _2951
REMARK  860  A    between atoms: _2951  and  _2952
REMARK  861  A    between atoms: _2951  and  _2953
REMARK  862  A    between atoms: _2952  and  _2954
REMARK  863  A    between atoms: _2966  and  _2967
REMARK  864  A    between atoms: _2967  and  _2968
REMARK  865  A    between atoms: _2967  and  _2970
REMARK  866  A    between atoms: _2970  and  _2971
REMARK  867  A    between atoms: _2971  and  _2972
REMARK  868  A    between atoms: _2972  and  _2973
REMARK  869  A    between atoms: _2973  and  _2974
REMARK  870  A    between atoms: _2988  and  _2989
REMARK  871  A    between atoms: _2989  and  _2990
REMARK  872  A    between atoms: _2989  and  _2992
REMARK  873  A    between atoms: _2992  and  _2993
REMARK  874  A    between atoms: _2993  and  _2994
REMARK  875  A    between atoms: _3003  and  _3004
REMARK  876  A    between atoms: _3004  and  _3005
REMARK  877  A    between atoms: _3004  and  _3007
REMARK  878  A    between atoms: _3007  and  _3008
REMARK  879  A    between atoms: _3007  and  _3009
REMARK  880  A    between atoms: _3008  and  _3010
REMARK  881  A    between atoms: _3022  and  _3023
REMARK  882  A    between atoms: _3023  and  _3024
REMARK  883  A    between atoms: _3023  and  _3026
REMARK  884  A    between atoms: _3026  and  _3027
REMARK  885  A    between atoms: _3026  and  _3028
REMARK  886  A    between atoms: _3038  and  _3039
REMARK  887  A    between atoms: _3039  and  _3040
REMARK  888  A    between atoms: _3039  and  _3042
REMARK  889  A    between atoms: _3042  and  _3043
REMARK  890  A    between atoms: _3043  and  _3044
REMARK  891  A    between atoms: _3044  and  _3045
REMARK  892  A    between atoms: _3045  and  _3046
REMARK  893  A    between atoms: _3060  and  _3061
REMARK  894  A    between atoms: _3061  and  _3062
REMARK  895  A    between atoms: _3061  and  _3064
REMARK  896  A    between atoms: _3064  and  _3065
REMARK  897  A    between atoms: _3065  and  _3066
REMARK  898  A    between atoms: _3066  and  _3067
REMARK  899  A    between atoms: _3067  and  _3068
REMARK  900  A    between atoms: _3082  and  _3083
REMARK  901  A    between atoms: _3083  and  _3084
REMARK  902  A    between atoms: _3083  and  _3086
REMARK  903  A    between atoms: _3086  and  _3087
REMARK  904  A    between atoms: _3099  and  _3100
REMARK  905  A    between atoms: _3100  and  _3101
REMARK  906  A    between atoms: _3100  and  _3103
REMARK  907  A    between atoms: _3103  and  _3104
REMARK  908  A    between atoms: _3110  and  _3111
REMARK  909  A    between atoms: _3111  and  _3112
REMARK  910  A    between atoms: _3111  and  _3114
REMARK  911  A    between atoms: _3114  and  _3115
REMARK  912  A    between atoms: _3115  and  _3116
REMARK  913  A    between atoms: _3127  and  _3128
REMARK  914  A    between atoms: _3128  and  _3129
REMARK  915  A    between atoms: _3128  and  _3131
REMARK  916  A    between atoms: _3131  and  _3132
REMARK  917  A    between atoms: _3147  and  _3148
REMARK  918  A    between atoms: _3148  and  _3149
REMARK  919  A    between atoms: _3148  and  _3151
REMARK  920  A    between atoms: _3151  and  _3152
REMARK  921  A    between atoms: _3151  and  _3153
REMARK  922  A    between atoms: _3152  and  _3154
REMARK  923  A    between atoms: _3166  and  _3167
REMARK  924  A    between atoms: _3167  and  _3168
REMARK  925  A    between atoms: _3173  and  _3174
REMARK  926  A    between atoms: _3174  and  _3175
REMARK  927  A    between atoms: _3174  and  _3177
REMARK  928  A    between atoms: _3177  and  _3178
REMARK  929  A    between atoms: _3183  and  _3184
REMARK  930  A    between atoms: _3195  and  _3196
REMARK  931  A    between atoms: _3208  and  _3209
REMARK  932  A    between atoms: _3209  and  _3210
REMARK  933  A    between atoms: _3209  and  _3212
REMARK  934  A    between atoms: _3212  and  _3213
REMARK  935  A    between atoms: _3212  and  _3214
REMARK  936  A    between atoms: _3213  and  _3215
REMARK  937  A    between atoms: _3227  and  _3228
REMARK  938  A    between atoms: _3228  and  _3229
REMARK  939  A    between atoms: _3228  and  _3231
REMARK  940  A    between atoms: _3231  and  _3232
REMARK  941  A    between atoms: _3231  and  _3233
REMARK  942  A    between atoms: _3241  and  _3242
REMARK  943  A    between atoms: _3242  and  _3243
REMARK  944  A    between atoms: _3242  and  _3245
REMARK  945  A    between atoms: _3245  and  _3246
REMARK  946  A    between atoms: _3246  and  _3247
REMARK  947  A    between atoms: _3246  and  _3248
REMARK  948  A    between atoms: _3260  and  _3261
REMARK  949  A    between atoms: _3261  and  _3262
REMARK  950  A    between atoms: _3261  and  _3264
REMARK  951  A    between atoms: _3264  and  _3265
REMARK  952  A    between atoms: _3280  and  _3281
REMARK  953  A    between atoms: _3281  and  _3282
REMARK  954  A    between atoms: _3281  and  _3284
REMARK  955  A    between atoms: _3284  and  _3285
REMARK  956  A    between atoms: _3284  and  _3286
REMARK  957  A    between atoms: _3296  and  _3297
REMARK  958  A    between atoms: _3297  and  _3298
REMARK  959  A    between atoms: _3297  and  _3300
REMARK  960  A    between atoms: _3300  and  _3301
REMARK  961  A    between atoms: _3301  and  _3302
REMARK                            x       y       z     vdW  Elec       q    Type
REMARK                         _______ _______ _______ _____ _____    ______ ____
ROOT
ATOM      1  H   UNK     1       8.980  39.320  41.347  0.00  0.00    +0.000 HD
ENDROOT
TORSDOF 0
REMARK  Name = /Users/mlugowska/PhD/ML_residence_time_prediction/protein_files/5J20_protein.pdb
REMARK  961 active torsions:
REMARK  status: ('A' for Active; 'I' for Inactive)
REMARK    1  A    between atoms: _2  and  _3
REMARK    2  A    between atoms: _2  and  _5
REMARK    3  A    between atoms: _10  and  _11
REMARK    4  A    between atoms: _11  and  _12
REMARK    5  A    between atoms: _11  and  _14
REMARK    6  A    between atoms: _14  and  _15
REMARK    7  A    between atoms: _14  and  _16
REMARK    8  A    between atoms: _26  and  _27
REMARK    9  A    between atoms: _27  and  _28
REMARK   10  A    between atoms: _27  and  _30
REMARK   11  A    between atoms: _30  and  _31
REMARK   12  A    between atoms: _31  and  _32
REMARK   13  A    between atoms: _41  and  _42
REMARK   14  A    between atoms: _42  and  _43
REMARK   15  A    between atoms: _42  and  _45
REMARK   16  A    between atoms: _45  and  _46
REMARK   17  A    between atoms: _45  and  _47
REMARK   18  A    between atoms: _55  and  _56
REMARK   19  A    between atoms: _56  and  _57
REMARK   20  A    between atoms: _56  and  _59
REMARK   21  A    between atoms: _59  and  _60
REMARK   22  A    between atoms: _75  and  _76
REMARK   23  A    between atoms: _76  and  _77
REMARK   24  A    between atoms: _76  and  _79
REMARK   25  A    between atoms: _85  and  _86
REMARK   26  A    between atoms: _86  and  _87
REMARK   27  A    between atoms: _86  and  _89
REMARK   28  A    between atoms: _89  and  _90
REMARK   29  A    between atoms: _105  and  _106
REMARK   30  A    between atoms: _106  and  _107
REMARK   31  A    between atoms: _106  and  _109
REMARK   32  A    between atoms: _109  and  _110
REMARK   33  A    between atoms: _110  and  _111
REMARK   34  A    between atoms: _122  and  _123
REMARK   35  A    between atoms: _123  and  _124
REMARK   36  A    between atoms: _123  and  _126
REMARK   37  A    between atoms: _132  and  _133
REMARK   38  A    between atoms: _133  and  _134
REMARK   39  A    between atoms: _133  and  _136
REMARK   40  A    between atoms: _136  and  _137
REMARK   41  A    between atoms: _137  and  _138
REMARK   42  A    between atoms: _147  and  _148
REMARK   43  A    between atoms: _148  and  _149
REMARK   44  A    between atoms: _148  and  _151
REMARK   45  A    between atoms: _151  and  _152
REMARK   46  A    between atoms: _151  and  _153
REMARK   47  A    between atoms: _152  and  _154
REMARK   48  A    between atoms: _166  and  _167
REMARK   49  A    between atoms: _167  and  _168
REMARK   50  A    between atoms: _167  and  _170
REMARK   51  A    between atoms: _176  and  _177
REMARK   52  A    between atoms: _177  and  _178
REMARK   53  A    between atoms: _177  and  _180
REMARK   54  A    between atoms: _180  and  _181
REMARK   55  A    between atoms: _181  and  _182
REMARK   56  A    between atoms: _193  and  _194
REMARK   57  A    between atoms: _194  and  _195
REMARK   58  A    between atoms: _194  and  _197
REMARK   59  A    between atoms: _197  and  _198
REMARK   60  A    between atoms: _198  and  _199
REMARK   61  A    between atoms: _198  and  _200
REMARK   62  A    between atoms: _212  and  _213
REMARK   63  A    between atoms: _213  and  _214
REMARK   64  A    between atoms: _213  and  _216
REMARK   65  A    between atoms: _216  and  _217
REMARK   66  A    between atoms: _217  and  _218
REMARK   67  A    between atoms: _218  and  _219
REMARK   68  A    between atoms: _229  and  _230
REMARK   69  A    between atoms: _230  and  _231
REMARK   70  A    between atoms: _230  and  _233
REMARK   71  A    between atoms: _233  and  _234
REMARK   72  A    between atoms: _240  and  _241
REMARK   73  A    between atoms: _241  and  _242
REMARK   74  A    between atoms: _241  and  _244
REMARK   75  A    between atoms: _244  and  _245
REMARK   76  A    between atoms: _245  and  _246
REMARK   77  A    between atoms: _245  and  _247
REMARK   78  A    between atoms: _259  and  _260
REMARK   79  A    between atoms: _260  and  _261
REMARK   80  A    between atoms: _260  and  _263
REMARK   81  A    between atoms: _263  and  _264
REMARK   82  A    between atoms: _263  and  _265
REMARK   83  A    between atoms: _264  and  _266
REMARK   84  A    between atoms: _278  and  _279
REMARK   85  A    between atoms: _279  and  _280
REMARK   86  A    between atoms: _279  and  _282
REMARK   87  A    between atoms: _282  and  _283
REMARK   88  A    between atoms: _282  and  _284
REMARK   89  A    between atoms: _283  and  _285
REMARK   90  A    between atoms: _297  and  _298
REMARK   91  A    between atoms: _298  and  _299
REMARK   92  A    between atoms: _298  and  _301
REMARK   93  A    between atoms: _301  and  _302
REMARK   94  A    between atoms: _311  and  _312
REMARK   95  A    between atoms: _312  and  _313
REMARK   96  A    between atoms: _312  and  _315
REMARK   97  A    between atoms: _315  and  _316
REMARK   98  A    between atoms: _315  and  _317
REMARK   99  A    between atoms: _325  and  _326
REMARK  100  A    between atoms: _326  and  _327
REMARK  101  A    between atoms: _326  and  _329
REMARK  102  A    between atoms: _329  and  _330
REMARK  103  A    between atoms: _345  and  _346
REMARK  104  A    between atoms: _346  and  _347
REMARK  105  A    between atoms: _346  and  _349
REMARK  106  A    between atoms: _349  and  _350
REMARK  107  A    between atoms: _355  and  _356
REMARK  108  A    between atoms: _366  and  _367
REMARK  109  A    between atoms: _367  and  _368
REMARK  110  A    between atoms: _367  and  _370
REMARK  111  A    between atoms: _370  and  _371
REMARK  112  A    between atoms: _377  and  _378
REMARK  113  A    between atoms: _378  and  _379
REMARK  114  A    between atoms: _378  and  _381
REMARK  115  A    between atoms: _381  and  _382
REMARK  116  A    between atoms: _391  and  _392
REMARK  117  A    between atoms: _392  and  _393
REMARK  118  A    between atoms: _392  and  _395
REMARK  119  A    between atoms: _395  and  _396
REMARK  120  A    between atoms: _396  and  _397
REMARK  121  A    between atoms: _397  and  _398
REMARK  122  A    between atoms: _398  and  _399
REMARK  123  A    between atoms: _413  and  _414
REMARK  124  A    between atoms: _414  and  _415
REMARK  125  A    between atoms: _414  and  _417
REMARK  126  A    between atoms: _417  and  _418
REMARK  127  A    between atoms: _418  and  _419
REMARK  128  A    between atoms: _428  and  _429
REMARK  129  A    between atoms: _429  and  _430
REMARK  130  A    between atoms: _429  and  _432
REMARK  131  A    between atoms: _432  and  _433
REMARK  132  A    between atoms: _432  and  _434
REMARK  133  A    between atoms: _433  and  _435
REMARK  134  A    between atoms: _447  and  _448
REMARK  135  A    between atoms: _448  and  _449
REMARK  136  A    between atoms: _448  and  _451
REMARK  137  A    between atoms: _451  and  _452
REMARK  138  A    between atoms: _467  and  _468
REMARK  139  A    between atoms: _468  and  _469
REMARK  140  A    between atoms: _468  and  _471
REMARK  141  A    between atoms: _471  and  _472
REMARK  142  A    between atoms: _472  and  _473
REMARK  143  A    between atoms: _472  and  _474
REMARK  144  A    between atoms: _486  and  _487
REMARK  145  A    between atoms: _487  and  _488
REMARK  146  A    between atoms: _487  and  _490
REMARK  147  A    between atoms: _490  and  _491
REMARK  148  A    between atoms: _491  and  _492
REMARK  149  A    between atoms: _492  and  _493
REMARK  150  A    between atoms: _510  and  _511
REMARK  151  A    between atoms: _511  and  _512
REMARK  152  A    between atoms: _511  and  _514
REMARK  153  A    between atoms: _514  and  _515
REMARK  154  A    between atoms: _515  and  _516
REMARK  155  A    between atoms: _525  and  _526
REMARK  156  A    between atoms: _526  and  _527
REMARK  157  A    between atoms: _526  and  _529
REMARK  158  A    between atoms: _529  and  _530
REMARK  159  A    between atoms: _530  and  _531
REMARK  160  A    between atoms: _530  and  _532
REMARK  161  A    between atoms: _544  and  _545
REMARK  162  A    between atoms: _545  and  _546
REMARK  163  A    between atoms: _545  and  _548
REMARK  164  A    between atoms: _548  and  _549
REMARK  165  A    between atoms: _548  and  _550
REMARK  166  A    between atoms: _549  and  _551
REMARK  167  A    between atoms: _563  and  _564
REMARK  168  A    between atoms: _564  and  _565
REMARK  169  A    between atoms: _564  and  _567
REMARK  170  A    between atoms: _567  and  _568
REMARK  171  A    between atoms: _574  and  _575
REMARK  172  A    between atoms: _575  and  _576
REMARK  173  A    between atoms: _575  and  _578
REMARK  174  A    between atoms: _578  and  _579
REMARK  175  A    between atoms: _588  and  _589
REMARK  176  A    between atoms: _589  and  _590
REMARK  177  A    between atoms: _589  and  _592
REMARK  178  A    between atoms: _592  and  _593
REMARK  179  A    between atoms: _599  and  _600
REMARK  180  A    between atoms: _600  and  _601
REMARK  181  A    between atoms: _600  and  _603
REMARK  182  A    between atoms: _603  and  _604
REMARK  183  A    between atoms: _610  and  _611
REMARK  184  A    between atoms: _611  and  _612
REMARK  185  A    between atoms: _611  and  _614
REMARK  186  A    between atoms: _614  and  _615
REMARK  187  A    between atoms: _622  and  _623
REMARK  188  A    between atoms: _623  and  _624
REMARK  189  A    between atoms: _623  and  _626
REMARK  190  A    between atoms: _632  and  _633
REMARK  191  A    between atoms: _633  and  _634
REMARK  192  A    between atoms: _633  and  _636
REMARK  193  A    between atoms: _636  and  _637
REMARK  194  A    between atoms: _637  and  _638
REMARK  195  A    between atoms: _637  and  _639
REMARK  196  A    between atoms: _651  and  _652
REMARK  197  A    between atoms: _652  and  _653
REMARK  198  A    between atoms: _652  and  _655
REMARK  199  A    between atoms: _655  and  _656
REMARK  200  A    between atoms: _663  and  _664
REMARK  201  A    between atoms: _664  and  _665
REMARK  202  A    between atoms: _664  and  _667
REMARK  203  A    between atoms: _667  and  _668
REMARK  204  A    between atoms: _668  and  _669
REMARK  205  A    between atoms: _669  and  _670
REMARK  206  A    between atoms: _670  and  _671
REMARK  207  A    between atoms: _685  and  _686
REMARK  208  A    between atoms: _686  and  _687
REMARK  209  A    between atoms: _686  and  _689
REMARK  210  A    between atoms: _689  and  _690
REMARK  211  A    between atoms: _689  and  _691
REMARK  212  A    between atoms: _690  and  _692
REMARK  213  A    between atoms: _704  and  _705
REMARK  214  A    between atoms: _705  and  _706
REMARK  215  A    between atoms: _705  and  _708
REMARK  216  A    between atoms: _708  and  _709
REMARK  217  A    between atoms: _709  and  _710
REMARK  218  A    between atoms: _710  and  _711
REMARK  219  A    between atoms: _728  and  _729
REMARK  220  A    between atoms: _729  and  _730
REMARK  221  A    between atoms: _729  and  _732
REMARK  222  A    between atoms: _732  and  _733
REMARK  223  A    between atoms: _738  and  _739
REMARK  224  A    between atoms: _749  and  _750
REMARK  225  A    between atoms: _750  and  _751
REMARK  226  A    between atoms: _750  and  _753
REMARK  227  A    between atoms: _753  and  _754
REMARK  228  A    between atoms: _754  and  _755
REMARK  229  A    between atoms: _764  and  _765
REMARK  230  A    between atoms: _765  and  _766
REMARK  231  A    between atoms: _765  and  _768
REMARK  232  A    between atoms: _772  and  _773
REMARK  233  A    between atoms: _773  and  _774
REMARK  234  A    between atoms: _773  and  _776
REMARK  235  A    between atoms: _776  and  _777
REMARK  236  A    between atoms: _777  and  _778
REMARK  237  A    between atoms: _777  and  _779
REMARK  238  A    between atoms: _791  and  _792
REMARK  239  A    between atoms: _792  and  _793
REMARK  240  A    between atoms: _792  and  _795
REMARK  241  A    between atoms: _795  and  _796
REMARK  242  A    between atoms: _795  and  _797
REMARK  243  A    between atoms: _805  and  _806
REMARK  244  A    between atoms: _806  and  _807
REMARK  245  A    between atoms: _806  and  _809
REMARK  246  A    between atoms: _809  and  _810
REMARK  247  A    between atoms: _818  and  _819
REMARK  248  A    between atoms: _831  and  _832
REMARK  249  A    between atoms: _832  and  _833
REMARK  250  A    between atoms: _832  and  _835
REMARK  251  A    between atoms: _835  and  _836
REMARK  252  A    between atoms: _842  and  _843
REMARK  253  A    between atoms: _843  and  _844
REMARK  254  A    between atoms: _843  and  _846
REMARK  255  A    between atoms: _846  and  _847
REMARK  256  A    between atoms: _847  and  _848
REMARK  257  A    between atoms: _848  and  _849
REMARK  258  A    between atoms: _849  and  _850
REMARK  259  A    between atoms: _864  and  _865
REMARK  260  A    between atoms: _865  and  _866
REMARK  261  A    between atoms: _865  and  _868
REMARK  262  A    between atoms: _868  and  _869
REMARK  263  A    between atoms: _869  and  _870
REMARK  264  A    between atoms: _869  and  _871
REMARK  265  A    between atoms: _883  and  _884
REMARK  266  A    between atoms: _884  and  _885
REMARK  267  A    between atoms: _884  and  _887
REMARK  268  A    between atoms: _887  and  _888
REMARK  269  A    between atoms: _895  and  _896
REMARK  270  A    between atoms: _896  and  _897
REMARK  271  A    between atoms: _896  and  _899
REMARK  272  A    between atoms: _899  and  _900
REMARK  273  A    between atoms: _906  and  _907
REMARK  274  A    between atoms: _907  and  _908
REMARK  275  A    between atoms: _913  and  _914
REMARK  276  A    between atoms: _914  and  _915
REMARK  277  A    between atoms: _914  and  _917
REMARK  278  A    between atoms: _917  and  _918
REMARK  279  A    between atoms: _918  and  _919
REMARK  280  A    between atoms: _919  and  _920
REMARK  281  A    between atoms: _920  and  _921
REMARK  282  A    between atoms: _935  and  _936
REMARK  283  A    between atoms: _936  and  _937
REMARK  284  A    between atoms: _936  and  _939
REMARK  285  A    between atoms: _939  and  _940
REMARK  286  A    between atoms: _940  and  _941
REMARK  287  A    between atoms: _950  and  _951
REMARK  288  A    between atoms: _951  and  _952
REMARK  289  A    between atoms: _951  and  _954
REMARK  290  A    between atoms: _954  and  _955
REMARK  291  A    between atoms: _955  and  _956
REMARK  292  A    between atoms: _955  and  _957
REMARK  293  A    between atoms: _969  and  _970
REMARK  294  A    between atoms: _970  and  _971
REMARK  295  A    between atoms: _970  and  _973
REMARK  296  A    between atoms: _973  and  _974
REMARK  297  A    between atoms: _986  and  _987
REMARK  298  A    between atoms: _987  and  _988
REMARK  299  A    between atoms: _987  and  _990
REMARK  300  A    between atoms: _990  and  _991
REMARK  301  A    between atoms: _990  and  _992
REMARK  302  A    between atoms: _991  and  _993
REMARK  303  A    between atoms: _1005  and  _1006
REMARK  304  A    between atoms: _1006  and  _1007
REMARK  305  A    between atoms: _1006  and  _1009
REMARK  306  A    between atoms: _1009  and  _1010
REMARK  307  A    between atoms: _1019  and  _1020
REMARK  308  A    between atoms: _1020  and  _1021
REMARK  309  A    between atoms: _1020  and  _1023
REMARK  310  A    between atoms: _1023  and  _1024
REMARK  311  A    between atoms: _1024  and  _1025
REMARK  312  A    between atoms: _1024  and  _1026
REMARK  313  A    between atoms: _1038  and  _1039
REMARK  314  A    between atoms: _1039  and  _1040
REMARK  315  A    between atoms: _1039  and  _1042
REMARK  316  A    between atoms: _1042  and  _1043
REMARK  317  A    between atoms: _1042  and  _1044
REMARK  318  A    between atoms: _1043  and  _1045
REMARK  319  A    between atoms: _1058  and  _1059
REMARK  320  A    between atoms: _1071  and  _1072
REMARK  321  A    between atoms: _1072  and  _1073
REMARK  322  A    between atoms: _1072  and  _1075
REMARK  323  A    between atoms: _1075  and  _1076
REMARK  324  A    between atoms: _1085  and  _1086
REMARK  325  A    between atoms: _1086  and  _1087
REMARK  326  A    between atoms: _1086  and  _1089
REMARK  327  A    between atoms: _1089  and  _1090
REMARK  328  A    between atoms: _1090  and  _1091
REMARK  329  A    between atoms: _1091  and  _1092
REMARK  330  A    between atoms: _1092  and  _1093
REMARK  331  A    between atoms: _1107  and  _1108
REMARK  332  A    between atoms: _1108  and  _1109
REMARK  333  A    between atoms: _1108  and  _1111
REMARK  334  A    between atoms: _1111  and  _1112
REMARK  335  A    between atoms: _1112  and  _1113
REMARK  336  A    between atoms: _1124  and  _1125
REMARK  337  A    between atoms: _1125  and  _1126
REMARK  338  A    between atoms: _1125  and  _1128
REMARK  339  A    between atoms: _1128  and  _1129
REMARK  340  A    between atoms: _1136  and  _1137
REMARK  341  A    between atoms: _1137  and  _1138
REMARK  342  A    between atoms: _1137  and  _1140
REMARK  343  A    between atoms: _1140  and  _1141
REMARK  344  A    between atoms: _1141  and  _1142
REMARK  345  A    between atoms: _1142  and  _1143
REMARK  346  A    between atoms: _1160  and  _1161
REMARK  347  A    between atoms: _1161  and  _1162
REMARK  348  A    between atoms: _1161  and  _1164
REMARK  349  A    between atoms: _1164  and  _1165
REMARK  350  A    between atoms: _1164  and  _1166
REMARK  351  A    between atoms: _1174  and  _1175
REMARK  352  A    between atoms: _1175  and  _1176
REMARK  353  A    between atoms: _1175  and  _1178
REMARK  354  A    between atoms: _1178  and  _1179
REMARK  355  A    between atoms: _1179  and  _1180
REMARK  356  A    between atoms: _1179  and  _1181
REMARK  357  A    between atoms: _1193  and  _1194
REMARK  358  A    between atoms: _1194  and  _1195
REMARK  359  A    between atoms: _1194  and  _1197
REMARK  360  A    between atoms: _1197  and  _1198
REMARK  361  A    between atoms: _1197  and  _1199
REMARK  362  A    between atoms: _1207  and  _1208
REMARK  363  A    between atoms: _1208  and  _1209
REMARK  364  A    between atoms: _1208  and  _1211
REMARK  365  A    between atoms: _1211  and  _1212
REMARK  366  A    between atoms: _1211  and  _1213
REMARK  367  A    between atoms: _1212  and  _1214
REMARK  368  A    between atoms: _1226  and  _1227
REMARK  369  A    between atoms: _1227  and  _1228
REMARK  370  A    between atoms: _1227  and  _1230
REMARK  371  A    between atoms: _1230  and  _1231
REMARK  372  A    between atoms: _1230  and  _1232
REMARK  373  A    between atoms: _1242  and  _1243
REMARK  374  A    between atoms: _1243  and  _1244
REMARK  375  A    between atoms: _1243  and  _1246
REMARK  376  A    between atoms: _1246  and  _1247
REMARK  377  A    between atoms: _1254  and  _1255
REMARK  378  A    between atoms: _1255  and  _1256
REMARK  379  A    between atoms: _1255  and  _1258
REMARK  380  A    between atoms: _1258  and  _1259
REMARK  381  A    between atoms: _1258  and  _1260
REMARK  382  A    between atoms: _1268  and  _1269
REMARK  383  A    between atoms: _1269  and  _1270
REMARK  384  A    between atoms: _1275  and  _1276
REMARK  385  A    between atoms: _1276  and  _1277
REMARK  386  A    between atoms: _1276  and  _1279
REMARK  387  A    between atoms: _1279  and  _1280
REMARK  388  A    between atoms: _1279  and  _1281
REMARK  389  A    between atoms: _1280  and  _1282
REMARK  390  A    between atoms: _1294  and  _1295
REMARK  391  A    between atoms: _1295  and  _1296
REMARK  392  A    between atoms: _1301  and  _1302
REMARK  393  A    between atoms: _1302  and  _1303
REMARK  394  A    between atoms: _1302  and  _1305
REMARK  395  A    between atoms: _1305  and  _1306
REMARK  396  A    between atoms: _1306  and  _1307
REMARK  397  A    between atoms: _1307  and  _1308
REMARK  398  A    between atoms: _1318  and  _1319
REMARK  399  A    between atoms: _1319  and  _1320
REMARK  400  A    between atoms: _1319  and  _1322
REMARK  401  A    between atoms: _1322  and  _1323
REMARK  402  A    between atoms: _1322  and  _1324
REMARK  403  A    between atoms: _1332  and  _1333
REMARK  404  A    between atoms: _1333  and  _1334
REMARK  405  A    between atoms: _1333  and  _1336
REMARK  406  A    between atoms: _1336  and  _1337
REMARK  407  A    between atoms: _1337  and  _1338
REMARK  408  A    between atoms: _1338  and  _1339
REMARK  409  A    between atoms: _1339  and  _1340
REMARK  410  A    between atoms: _1354  and  _1355
REMARK  411  A    between atoms: _1355  and  _1356
REMARK  412  A    between atoms: _1355  and  _1358
REMARK  413  A    between atoms: _1364  and  _1365
REMARK  414  A    between atoms: _1365  and  _1366
REMARK  415  A    between atoms: _1365  and  _1368
REMARK  416  A    between atoms: _1368  and  _1369
REMARK  417  A    between atoms: _1376  and  _1377
REMARK  418  A    between atoms: _1377  and  _1378
REMARK  419  A    between atoms: _1377  and  _1380
REMARK  420  A    between atoms: _1380  and  _1381
REMARK  421  A    between atoms: _1381  and  _1382
REMARK  422  A    between atoms: _1381  and  _1383
REMARK  423  A    between atoms: _1395  and  _1396
REMARK  424  A    between atoms: _1396  and  _1399
REMARK  425  A    between atoms: _1399  and  _1400
REMARK  426  A    between atoms: _1399  and  _1401
REMARK  427  A    between atoms: _1400  and  _1402
REMARK  428  A    between atoms: _1422  and  _1425
REMARK  429  A    between atoms: _1424  and  _1428
REMARK  430  A    between atoms: _1425  and  _1427
REMARK  431  A    between atoms: _1443  and  _1444
REMARK  432  A    between atoms: _1443  and  _1446
REMARK  433  A    between atoms: _1446  and  _1447
REMARK  434  A    between atoms: _1457  and  _1458
REMARK  435  A    between atoms: _1458  and  _1459
REMARK  436  A    between atoms: _1458  and  _1461
REMARK  437  A    between atoms: _1461  and  _1462
REMARK  438  A    between atoms: _1462  and  _1463
REMARK  439  A    between atoms: _1462  and  _1464
REMARK  440  A    between atoms: _1476  and  _1477
REMARK  441  A    between atoms: _1477  and  _1478
REMARK  442  A    between atoms: _1483  and  _1484
REMARK  443  A    between atoms: _1484  and  _1485
REMARK  444  A    between atoms: _1484  and  _1487
REMARK  445  A    between atoms: _1487  and  _1488
REMARK  446  A    between atoms: _1487  and  _1489
REMARK  447  A    between atoms: _1497  and  _1498
REMARK  448  A    between atoms: _1498  and  _1499
REMARK  449  A    between atoms: _1498  and  _1501
REMARK  450  A    between atoms: _1501  and  _1502
REMARK  451  A    between atoms: _1501  and  _1503
REMARK  452  A    between atoms: _1502  and  _1504
REMARK  453  A    between atoms: _1516  and  _1517
REMARK  454  A    between atoms: _1517  and  _1518
REMARK  455  A    between atoms: _1517  and  _1520
REMARK  456  A    between atoms: _1526  and  _1527
REMARK  457  A    between atoms: _1527  and  _1528
REMARK  458  A    between atoms: _1527  and  _1530
REMARK  459  A    between atoms: _1530  and  _1531
REMARK  460  A    between atoms: _1531  and  _1532
REMARK  461  A    between atoms: _1532  and  _1533
REMARK  462  A    between atoms: _1533  and  _1534
REMARK  463  A    between atoms: _1548  and  _1549
REMARK  464  A    between atoms: _1549  and  _1550
REMARK  465  A    between atoms: _1549  and  _1552
REMARK  466  A    between atoms: _1552  and  _1553
REMARK  467  A    between atoms: _1559  and  _1560
REMARK  468  A    between atoms: _1560  and  _1561
REMARK  469  A    between atoms: _1566  and  _1567
REMARK  470  A    between atoms: _1567  and  _1568
REMARK  471  A    between atoms: _1567  and  _1570
REMARK  472  A    between atoms: _1570  and  _1571
REMARK  473  A    between atoms: _1570  and  _1572
REMARK  474  A    between atoms: _1580  and  _1581
REMARK  475  A    between atoms: _1581  and  _1582
REMARK  476  A    between atoms: _1581  and  _1584
REMARK  477  A    between atoms: _1584  and  _1585
REMARK  478  A    between atoms: _1585  and  _1586
REMARK  479  A    between atoms: _1586  and  _1587
REMARK  480  A    between atoms: _1587  and  _1588
REMARK  481  A    between atoms: _1602  and  _1603
REMARK  482  A    between atoms: _1603  and  _1604
REMARK  483  A    between atoms: _1603  and  _1606
REMARK  484  A    between atoms: _1612  and  _1613
REMARK  485  A    between atoms: _1613  and  _1614
REMARK  486  A    between atoms: _1613  and  _1616
REMARK  487  A    between atoms: _1616  and  _1617
REMARK  488  A    between atoms: _1632  and  _1633
REMARK  489  A    between atoms: _1633  and  _1634
REMARK  490  A    between atoms: _1633  and  _1636
REMARK  491  A    between atoms: _1636  and  _1637
REMARK  492  A    between atoms: _1637  and  _1638
REMARK  493  A    between atoms: _1638  and  _1639
REMARK  494  A    between atoms: _1649  and  _1650
REMARK  495  A    between atoms: _1650  and  _1651
REMARK  496  A    between atoms: _1650  and  _1653
REMARK  497  A    between atoms: _1653  and  _1654
REMARK  498  A    between atoms: _1654  and  _1655
REMARK  499  A    between atoms: _1664  and  _1665
REMARK  500  A    between atoms: _1665  and  _1666
REMARK  501  A    between atoms: _1665  and  _1668
REMARK  502  A    between atoms: _1674  and  _1675
REMARK  503  A    between atoms: _1675  and  _1676
REMARK  504  A    between atoms: _1675  and  _1678
REMARK  505  A    between atoms: _1678  and  _1679
REMARK  506  A    between atoms: _1679  and  _1680
REMARK  507  A    between atoms: _1679  and  _1681
REMARK  508  A    between atoms: _1693  and  _1694
REMARK  509  A    between atoms: _1694  and  _1695
REMARK  510  A    between atoms: _1694  and  _1697
REMARK  511  A    between atoms: _1697  and  _1698
REMARK  512  A    between atoms: _1698  and  _1699
REMARK  513  A    between atoms: _1710  and  _1711
REMARK  514  A    between atoms: _1711  and  _1712
REMARK  515  A    between atoms: _1711  and  _1714
REMARK  516  A    between atoms: _1720  and  _1721
REMARK  517  A    between atoms: _1721  and  _1722
REMARK  518  A    between atoms: _1727  and  _1728
REMARK  519  A    between atoms: _1728  and  _1729
REMARK  520  A    between atoms: _1728  and  _1731
REMARK  521  A    between atoms: _1737  and  _1738
REMARK  522  A    between atoms: _1738  and  _1739
REMARK  523  A    between atoms: _1738  and  _1741
REMARK  524  A    between atoms: _1741  and  _1742
REMARK  525  A    between atoms: _1749  and  _1750
REMARK  526  A    between atoms: _1750  and  _1751
REMARK  527  A    between atoms: _1750  and  _1753
REMARK  528  A    between atoms: _1753  and  _1754
REMARK  529  A    between atoms: _1753  and  _1755
REMARK  530  A    between atoms: _1754  and  _1756
REMARK  531  A    between atoms: _1768  and  _1769
REMARK  532  A    between atoms: _1769  and  _1772
REMARK  533  A    between atoms: _1772  and  _1773
REMARK  534  A    between atoms: _1791  and  _1793
REMARK  535  A    between atoms: _1792  and  _1794
REMARK  536  A    between atoms: _1814  and  _1815
REMARK  537  A    between atoms: _1814  and  _1817
REMARK  538  A    between atoms: _1817  and  _1818
REMARK  539  A    between atoms: _1817  and  _1819
REMARK  540  A    between atoms: _1818  and  _1820
REMARK  541  A    between atoms: _1833  and  _1834
REMARK  542  A    between atoms: _1834  and  _1835
REMARK  543  A    between atoms: _1840  and  _1841
REMARK  544  A    between atoms: _1841  and  _1842
REMARK  545  A    between atoms: _1841  and  _1844
REMARK  546  A    between atoms: _1844  and  _1845
REMARK  547  A    between atoms: _1845  and  _1846
REMARK  548  A    between atoms: _1857  and  _1858
REMARK  549  A    between atoms: _1858  and  _1859
REMARK  550  A    between atoms: _1858  and  _1861
REMARK  551  A    between atoms: _1861  and  _1862
REMARK  552  A    between atoms: _1877  and  _1878
REMARK  553  A    between atoms: _1878  and  _1879
REMARK  554  A    between atoms: _1884  and  _1885
REMARK  555  A    between atoms: _1885  and  _1886
REMARK  556  A    between atoms: _1885  and  _1888
REMARK  557  A    between atoms: _1888  and  _1889
REMARK  558  A    between atoms: _1888  and  _1890
REMARK  559  A    between atoms: _1900  and  _1901
REMARK  560  A    between atoms: _1901  and  _1902
REMARK  561  A    between atoms: _1907  and  _1908
REMARK  562  A    between atoms: _1908  and  _1909
REMARK  563  A    between atoms: _1908  and  _1911
REMARK  564  A    between atoms: _1911  and  _1912
REMARK  565  A    between atoms: _1927  and  _1928
REMARK  566  A    between atoms: _1928  and  _1929
REMARK  567  A    between atoms: _1928  and  _1931
REMARK  568  A    between atoms: _1931  and  _1932
REMARK  569  A    between atoms: _1937  and  _1938
REMARK  570  A    between atoms: _1948  and  _1949
REMARK  571  A    between atoms: _1949  and  _1950
REMARK  572  A    between atoms: _1949  and  _1952
REMARK  573  A    between atoms: _1952  and  _1953
REMARK  574  A    between atoms: _1959  and  _1960
REMARK  575  A    between atoms: _1960  and  _1961
REMARK  576  A    between atoms: _1960  and  _1963
REMARK  577  A    between atoms: _1969  and  _1970
REMARK  578  A    between atoms: _1970  and  _1971
REMARK  579  A    between atoms: _1970  and  _1973
REMARK  580  A    between atoms: _1973  and  _1974
REMARK  581  A    between atoms: _1979  and  _1980
REMARK  582  A    between atoms: _1990  and  _1991
REMARK  583  A    between atoms: _1991  and  _1992
REMARK  584  A    between atoms: _1991  and  _1994
REMARK  585  A    between atoms: _1994  and  _1995
REMARK  586  A    between atoms: _1995  and  _1996
REMARK  587  A    between atoms: _1995  and  _1997
REMARK  588  A    between atoms: _2009  and  _2010
REMARK  589  A    between atoms: _2010  and  _2011
REMARK  590  A    between atoms: _2010  and  _2013
REMARK  591  A    between atoms: _2013  and  _2014
REMARK  592  A    between atoms: _2013  and  _2015
REMARK  593  A    between atoms: _2025  and  _2026
REMARK  594  A    between atoms: _2026  and  _2027
REMARK  595  A    between atoms: _2026  and  _2029
REMARK  596  A    between atoms: _2035  and  _2036
REMARK  597  A    between atoms: _2036  and  _2037
REMARK  598  A    between atoms: _2036  and  _2039
REMARK  599  A    between atoms: _2039  and  _2040
REMARK  600  A    between atoms: _2040  and  _2041
REMARK  601  A    between atoms: _2050  and  _2051
REMARK  602  A    between atoms: _2051  and  _2052
REMARK  603  A    between atoms: _2051  and  _2054
REMARK  604  A    between atoms: _2054  and  _2055
REMARK  605  A    between atoms: _2055  and  _2056
REMARK  606  A    between atoms: _2056  and  _2057
REMARK  607  A    between atoms: _2057  and  _2058
REMARK  608  A    between atoms: _2072  and  _2073
REMARK  609  A    between atoms: _2073  and  _2074
REMARK  610  A    between atoms: _2073  and  _2076
REMARK  611  A    between atoms: _2076  and  _2077
REMARK  612  A    between atoms: _2076  and  _2078
REMARK  613  A    between atoms: _2088  and  _2089
REMARK  614  A    between atoms: _2089  and  _2090
REMARK  615  A    between atoms: _2089  and  _2092
REMARK  616  A    between atoms: _2092  and  _2093
REMARK  617  A    between atoms: _2092  and  _2094
REMARK  618  A    between atoms: _2102  and  _2103
REMARK  619  A    between atoms: _2103  and  _2104
REMARK  620  A    between atoms: _2103  and  _2106
REMARK  621  A    between atoms: _2106  and  _2107
REMARK  622  A    between atoms: _2106  and  _2108
REMARK  623  A    between atoms: _2118  and  _2119
REMARK  624  A    between atoms: _2119  and  _2120
REMARK  625  A    between atoms: _2119  and  _2122
REMARK  626  A    between atoms: _2122  and  _2123
REMARK  627  A    between atoms: _2122  and  _2124
REMARK  628  A    between atoms: _2123  and  _2125
REMARK  629  A    between atoms: _2137  and  _2138
REMARK  630  A    between atoms: _2138  and  _2139
REMARK  631  A    between atoms: _2138  and  _2141
REMARK  632  A    between atoms: _2141  and  _2142
REMARK  633  A    between atoms: _2141  and  _2143
REMARK  634  A    between atoms: _2151  and  _2152
REMARK  635  A    between atoms: _2152  and  _2153
REMARK  636  A    between atoms: _2152  and  _2155
REMARK  637  A    between atoms: _2155  and  _2156
REMARK  638  A    between atoms: _2156  and  _2157
REMARK  639  A    between atoms: _2157  and  _2158
REMARK  640  A    between atoms: _2158  and  _2159
REMARK  641  A    between atoms: _2173  and  _2174
REMARK  642  A    between atoms: _2174  and  _2175
REMARK  643  A    between atoms: _2174  and  _2177
REMARK  644  A    between atoms: _2177  and  _2178
REMARK  645  A    between atoms: _2190  and  _2191
REMARK  646  A    between atoms: _2191  and  _2192
REMARK  647  A    between atoms: _2191  and  _2194
REMARK  648  A    between atoms: _2194  and  _2195
REMARK  649  A    between atoms: _2204  and  _2205
REMARK  650  A    between atoms: _2205  and  _2206
REMARK  651  A    between atoms: _2205  and  _2208
REMARK  652  A    between atoms: _2208  and  _2209
REMARK  653  A    between atoms: _2216  and  _2217
REMARK  654  A    between atoms: _2217  and  _2218
REMARK  655  A    between atoms: _2217  and  _2220
REMARK  656  A    between atoms: _2220  and  _2221
REMARK  657  A    between atoms: _2228  and  _2229
REMARK  658  A    between atoms: _2229  and  _2230
REMARK  659  A    between atoms: _2229  and  _2232
REMARK  660  A    between atoms: _2232  and  _2233
REMARK  661  A    between atoms: _2233  and  _2234
REMARK  662  A    between atoms: _2243  and  _2244
REMARK  663  A    between atoms: _2244  and  _2245
REMARK  664  A    between atoms: _2244  and  _2247
REMARK  665  A    between atoms: _2247  and  _2248
REMARK  666  A    between atoms: _2248  and  _2249
REMARK  667  A    between atoms: _2260  and  _2261
REMARK  668  A    between atoms: _2261  and  _2262
REMARK  669  A    between atoms: _2261  and  _2264
REMARK  670  A    between atoms: _2264  and  _2265
REMARK  671  A    between atoms: _2270  and  _2271
REMARK  672  A    between atoms: _2281  and  _2282
REMARK  673  A    between atoms: _2282  and  _2283
REMARK  674  A    between atoms: _2282  and  _2285
REMARK  675  A    between atoms: _2291  and  _2292
REMARK  676  A    between atoms: _2292  and  _2293
REMARK  677  A    between atoms: _2292  and  _2295
REMARK  678  A    between atoms: _2295  and  _2296
REMARK  679  A    between atoms: _2315  and  _2316
REMARK  680  A    between atoms: _2316  and  _2317
REMARK  681  A    between atoms: _2316  and  _2319
REMARK  682  A    between atoms: _2319  and  _2320
REMARK  683  A    between atoms: _2320  and  _2321
REMARK  684  A    between atoms: _2330  and  _2331
REMARK  685  A    between atoms: _2331  and  _2332
REMARK  686  A    between atoms: _2331  and  _2334
REMARK  687  A    between atoms: _2334  and  _2335
REMARK  688  A    between atoms: _2341  and  _2342
REMARK  689  A    between atoms: _2342  and  _2343
REMARK  690  A    between atoms: _2342  and  _2345
REMARK  691  A    between atoms: _2345  and  _2346
REMARK  692  A    between atoms: _2352  and  _2353
REMARK  693  A    between atoms: _2353  and  _2354
REMARK  694  A    between atoms: _2353  and  _2356
REMARK  695  A    between atoms: _2362  and  _2363
REMARK  696  A    between atoms: _2363  and  _2364
REMARK  697  A    between atoms: _2369  and  _2370
REMARK  698  A    between atoms: _2370  and  _2371
REMARK  699  A    between atoms: _2376  and  _2377
REMARK  700  A    between atoms: _2377  and  _2378
REMARK  701  A    between atoms: _2377  and  _2380
REMARK  702  A    between atoms: _2380  and  _2381
REMARK  703  A    between atoms: _2387  and  _2388
REMARK  704  A    between atoms: _2388  and  _2389
REMARK  705  A    between atoms: _2388  and  _2391
REMARK  706  A    between atoms: _2391  and  _2392
REMARK  707  A    between atoms: _2407  and  _2408
REMARK  708  A    between atoms: _2408  and  _2409
REMARK  709  A    between atoms: _2408  and  _2411
REMARK  710  A    between atoms: _2411  and  _2412
REMARK  711  A    between atoms: _2411  and  _2413
REMARK  712  A    between atoms: _2421  and  _2422
REMARK  713  A    between atoms: _2422  and  _2423
REMARK  714  A    between atoms: _2422  and  _2425
REMARK  715  A    between atoms: _2425  and  _2426
REMARK  716  A    between atoms: _2425  and  _2427
REMARK  717  A    between atoms: _2437  and  _2438
REMARK  718  A    between atoms: _2438  and  _2439
REMARK  719  A    between atoms: _2438  and  _2441
REMARK  720  A    between atoms: _2441  and  _2442
REMARK  721  A    between atoms: _2442  and  _2443
REMARK  722  A    between atoms: _2443  and  _2444
REMARK  723  A    between atoms: _2461  and  _2462
REMARK  724  A    between atoms: _2462  and  _2463
REMARK  725  A    between atoms: _2462  and  _2465
REMARK  726  A    between atoms: _2465  and  _2466
REMARK  727  A    between atoms: _2465  and  _2467
REMARK  728  A    between atoms: _2475  and  _2476
REMARK  729  A    between atoms: _2476  and  _2477
REMARK  730  A    between atoms: _2476  and  _2479
REMARK  731  A    between atoms: _2479  and  _2480
REMARK  732  A    between atoms: _2487  and  _2488
REMARK  733  A    between atoms: _2488  and  _2489
REMARK  734  A    between atoms: _2488  and  _2491
REMARK  735  A    between atoms: _2491  and  _2492
REMARK  736  A    between atoms: _2491  and  _2493
REMARK  737  A    between atoms: _2501  and  _2502
REMARK  738  A    between atoms: _2502  and  _2503
REMARK  739  A    between atoms: _2508  and  _2509
REMARK  740  A    between atoms: _2509  and  _2510
REMARK  741  A    between atoms: _2509  and  _2512
REMARK  742  A    between atoms: _2512  and  _2513
REMARK  743  A    between atoms: _2513  and  _2514
REMARK  744  A    between atoms: _2524  and  _2525
REMARK  745  A    between atoms: _2537  and  _2538
REMARK  746  A    between atoms: _2538  and  _2539
REMARK  747  A    between atoms: _2538  and  _2541
REMARK  748  A    between atoms: _2541  and  _2542
REMARK  749  A    between atoms: _2542  and  _2543
REMARK  750  A    between atoms: _2543  and  _2544
REMARK  751  A    between atoms: _2554  and  _2555
REMARK  752  A    between atoms: _2555  and  _2556
REMARK  753  A    between atoms: _2561  and  _2562
REMARK  754  A    between atoms: _2562  and  _2563
REMARK  755  A    between atoms: _2562  and  _2565
REMARK  756  A    between atoms: _2565  and  _2566
REMARK  757  A    between atoms: _2566  and  _2567
REMARK  758  A    between atoms: _2567  and  _2568
REMARK  759  A    between atoms: _2585  and  _2586
REMARK  760  A    between atoms: _2586  and  _2587
REMARK  761  A    between atoms: _2592  and  _2593
REMARK  762  A    between atoms: _2593  and  _2594
REMARK  763  A    between atoms: _2593  and  _2596
REMARK  764  A    between atoms: _2596  and  _2597
REMARK  765  A    between atoms: _2596  and  _2598
REMARK  766  A    between atoms: _2606  and  _2607
REMARK  767  A    between atoms: _2607  and  _2608
REMARK  768  A    between atoms: _2607  and  _2610
REMARK  769  A    between atoms: _2610  and  _2611
REMARK  770  A    between atoms: _2611  and  _2612
REMARK  771  A    between atoms: _2612  and  _2613
REMARK  772  A    between atoms: _2613  and  _2614
REMARK  773  A    between atoms: _2628  and  _2629
REMARK  774  A    between atoms: _2629  and  _2630
REMARK  775  A    between atoms: _2629  and  _2632
REMARK  776  A    between atoms: _2632  and  _2633
REMARK  777  A    between atoms: _2632  and  _2634
REMARK  778  A    between atoms: _2644  and  _2645
REMARK  779  A    between atoms: _2645  and  _2646
REMARK  780  A    between atoms: _2645  and  _2648
REMARK  781  A    between atoms: _2648  and  _2649
REMARK  782  A    between atoms: _2648  and  _2650
REMARK  783  A    between atoms: _2649  and  _2651
REMARK  784  A    between atoms: _2663  and  _2664
REMARK  785  A    between atoms: _2664  and  _2665
REMARK  786  A    between atoms: _2664  and  _2667
REMARK  787  A    between atoms: _2667  and  _2668
REMARK  788  A    between atoms: _2668  and  _2669
REMARK  789  A    between atoms: _2668  and  _2670
REMARK  790  A    between atoms: _2682  and  _2683
REMARK  791  A    between atoms: _2683  and  _2684
REMARK  792  A    between atoms: _2683  and  _2686
REMARK  793  A    between atoms: _2686  and  _2687
REMARK  794  A    between atoms: _2699  and  _2700
REMARK  795  A    between atoms: _2700  and  _2701
REMARK  796  A    between atoms: _2700  and  _2703
REMARK  797  A    between atoms: _2703  and  _2704
REMARK  798  A    between atoms: _2704  and  _2705
REMARK  799  A    between atoms: _2704  and  _2706
REMARK  800  A    between atoms: _2718  and  _2719
REMARK  801  A    between atoms: _2719  and  _2720
REMARK  802  A    between atoms: _2719  and  _2722
REMARK  803  A    between atoms: _2722  and  _2723
REMARK  804  A    between atoms: _2723  and  _2724
REMARK  805  A    between atoms: _2724  and  _2725
REMARK  806  A    between atoms: _2725  and  _2726
REMARK  807  A    between atoms: _2740  and  _2741
REMARK  808  A    between atoms: _2741  and  _2742
REMARK  809  A    between atoms: _2741  and  _2744
REMARK  810  A    between atoms: _2744  and  _2745
REMARK  811  A    between atoms: _2745  and  _2746
REMARK  812  A    between atoms: _2755  and  _2756
REMARK  813  A    between atoms: _2756  and  _2757
REMARK  814  A    between atoms: _2756  and  _2759
REMARK  815  A    between atoms: _2759  and  _2760
REMARK  816  A    between atoms: _2767  and  _2768
REMARK  817  A    between atoms: _2768  and  _2769
REMARK  818  A    between atoms: _2768  and  _2771
REMARK  819  A    between atoms: _2771  and  _2772
REMARK  820  A    between atoms: _2772  and  _2773
REMARK  821  A    between atoms: _2784  and  _2785
REMARK  822  A    between atoms: _2785  and  _2786
REMARK  823  A    between atoms: _2785  and  _2788
REMARK  824  A    between atoms: _2788  and  _2789
REMARK  825  A    between atoms: _2788  and  _2790
REMARK  826  A    between atoms: _2798  and  _2799
REMARK  827  A    between atoms: _2799  and  _2800
REMARK  828  A    between atoms: _2799  and  _2802
REMARK  829  A    between atoms: _2802  and  _2803
REMARK  830  A    between atoms: _2803  and  _2804
REMARK  831  A    between atoms: _2813  and  _2814
REMARK  832  A    between atoms: _2814  and  _2815
REMARK  833  A    between atoms: _2814  and  _2817
REMARK  834  A    between atoms: _2817  and  _2818
REMARK  835  A    between atoms: _2823  and  _2824
REMARK  836  A    between atoms: _2834  and  _2835
REMARK  837  A    between atoms: _2835  and  _2838
REMARK  838  A    between atoms: _2838  and  _2839
REMARK  839  A    between atoms: _2839  and  _2840
REMARK  840  A    between atoms: _2839  and  _2841
REMARK  841  A    between atoms: _2884  and  _2885
REMARK  842  A    between atoms: _2884  and  _2887
REMARK  843  A    between atoms: _2887  and  _2888
REMARK  844  A    between atoms: _2888  and  _2889
REMARK  845  A    between atoms: _2899  and  _2900
REMARK  846  A    between atoms: _2900  and  _2901
REMARK  847  A    between atoms: _2900  and  _2903
REMARK  848  A    between atoms: _2903  and  _2904
REMARK  849  A    between atoms: _2904  and  _2905
REMARK  850  A    between atoms: _2905  and  _2906
REMARK  851  A    between atoms: _2923  and  _2924
REMARK  852  A    between atoms: _2924  and  _2925
REMARK  853  A    between atoms: _2924  and  _2927
REMARK  854  A    between atoms: _2927  and  _2928
REMARK  855  A    between atoms: _2928  and  _2929
REMARK  856  A    between atoms: _2929  and  _2930
REMARK  857  A    between atoms: _2947  and  _2948
REMARK  858  A    between atoms: _2948  and  _2949
REMARK  859  A    between atoms: _2948  and  _2951
REMARK  860  A    between atoms: _2951  and  _2952
REMARK  861  A    between atoms: _2951  and  _2953
REMARK  862  A    between atoms: _2952  and  _2954
REMARK  863  A    between atoms: _2966  and  _2967
REMARK  864  A    between atoms: _2967  and  _2968
REMARK  865  A    between atoms: _2967  and  _2970
REMARK  866  A    between atoms: _2970  and  _2971
REMARK  867  A    between atoms: _2971  and  _2972
REMARK  868  A    between atoms: _2972  and  _2973
REMARK  869  A    between atoms: _2973  and  _2974
REMARK  870  A    between atoms: _2988  and  _2989
REMARK  871  A    between atoms: _2989  and  _2990
REMARK  872  A    between atoms: _2989  and  _2992
REMARK  873  A    between atoms: _2992  and  _2993
REMARK  874  A    between atoms: _2993  and  _2994
REMARK  875  A    between atoms: _3003  and  _3004
REMARK  876  A    between atoms: _3004  and  _3005
REMARK  877  A    between atoms: _3004  and  _3007
REMARK  878  A    between atoms: _3007  and  _3008
REMARK  879  A    between atoms: _3007  and  _3009
REMARK  880  A    between atoms: _3008  and  _3010
REMARK  881  A    between atoms: _3022  and  _3023
REMARK  882  A    between atoms: _3023  and  _3024
REMARK  883  A    between atoms: _3023  and  _3026
REMARK  884  A    between atoms: _3026  and  _3027
REMARK  885  A    between atoms: _3026  and  _3028
REMARK  886  A    between atoms: _3038  and  _3039
REMARK  887  A    between atoms: _3039  and  _3040
REMARK  888  A    between atoms: _3039  and  _3042
REMARK  889  A    between atoms: _3042  and  _3043
REMARK  890  A    between atoms: _3043  and  _3044
REMARK  891  A    between atoms: _3044  and  _3045
REMARK  892  A    between atoms: _3045  and  _3046
REMARK  893  A    between atoms: _3060  and  _3061
REMARK  894  A    between atoms: _3061  and  _3062
REMARK  895  A    between atoms: _3061  and  _3064
REMARK  896  A    between atoms: _3064  and  _3065
REMARK  897  A    between atoms: _3065  and  _3066
REMARK  898  A    between atoms: _3066  and  _3067
REMARK  899  A    between atoms: _3067  and  _3068
REMARK  900  A    between atoms: _3082  and  _3083
REMARK  901  A    between atoms: _3083  and  _3084
REMARK  902  A    between atoms: _3083  and  _3086
REMARK  903  A    between atoms: _3086  and  _3087
REMARK  904  A    between atoms: _3099  and  _3100
REMARK  905  A    between atoms: _3100  and  _3101
REMARK  906  A    between atoms: _3100  and  _3103
REMARK  907  A    between atoms: _3103  and  _3104
REMARK  908  A    between atoms: _3110  and  _3111
REMARK  909  A    between atoms: _3111  and  _3112
REMARK  910  A    between atoms: _3111  and  _3114
REMARK  911  A    between atoms: _3114  and  _3115
REMARK  912  A    between atoms: _3115  and  _3116
REMARK  913  A    between atoms: _3127  and  _3128
REMARK  914  A    between atoms: _3128  and  _3129
REMARK  915  A    between atoms: _3128  and  _3131
REMARK  916  A    between atoms: _3131  and  _3132
REMARK  917  A    between atoms: _3147  and  _3148
REMARK  918  A    between atoms: _3148  and  _3149
REMARK  919  A    between atoms: _3148  and  _3151
REMARK  920  A    between atoms: _3151  and  _3152
REMARK  921  A    between atoms: _3151  and  _3153
REMARK  922  A    between atoms: _3152  and  _3154
REMARK  923  A    between atoms: _3166  and  _3167
REMARK  924  A    between atoms: _3167  and  _3168
REMARK  925  A    between atoms: _3173  and  _3174
REMARK  926  A    between atoms: _3174  and  _3175
REMARK  927  A    between atoms: _3174  and  _3177
REMARK  928  A    between atoms: _3177  and  _3178
REMARK  929  A    between atoms: _3183  and  _3184
REMARK  930  A    between atoms: _3195  and  _3196
REMARK  931  A    between atoms: _3208  and  _3209
REMARK  932  A    between atoms: _3209  and  _3210
REMARK  933  A    between atoms: _3209  and  _3212
REMARK  934  A    between atoms: _3212  and  _3213
REMARK  935  A    between atoms: _3212  and  _3214
REMARK  936  A    between atoms: _3213  and  _3215
REMARK  937  A    between atoms: _3227  and  _3228
REMARK  938  A    between atoms: _3228  and  _3229
REMARK  939  A    between atoms: _3228  and  _3231
REMARK  940  A    between atoms: _3231  and  _3232
REMARK  941  A    between atoms: _3231  and  _3233
REMARK  942  A    between atoms: _3241  and  _3242
REMARK  943  A    between atoms: _3242  and  _3243
REMARK  944  A    between atoms: _3242  and  _3245
REMARK  945  A    between atoms: _3245  and  _3246
REMARK  946  A    between atoms: _3246  and  _3247
REMARK  947  A    between atoms: _3246  and  _3248
REMARK  948  A    between atoms: _3260  and  _3261
REMARK  949  A    between atoms: _3261  and  _3262
REMARK  950  A    between atoms: _3261  and  _3264
REMARK  951  A    between atoms: _3264  and  _3265
REMARK  952  A    between atoms: _3280  and  _3281
REMARK  953  A    between atoms: _3281  and  _3282
REMARK  954  A    between atoms: _3281  and  _3284
REMARK  955  A    between atoms: _3284  and  _3285
REMARK  956  A    between atoms: _3284  and  _3286
REMARK  957  A    between atoms: _3296  and  _3297
REMARK  958  A    between atoms: _3297  and  _3298
REMARK  959  A    between atoms: _3297  and  _3300
REMARK  960  A    between atoms: _3300  and  _3301
REMARK  961  A    between atoms: _3301  and  _3302
REMARK                            x       y       z     vdW  Elec       q    Type
REMARK                         _______ _______ _______ _____ _____    ______ ____
ROOT
ATOM      1  H   UNK     1       8.334  40.698  40.487  0.00  0.00    +0.000 HD
ENDROOT
TORSDOF 0
REMARK  Name = /Users/mlugowska/PhD/ML_residence_time_prediction/protein_files/5J20_protein.pdb
REMARK  961 active torsions:
REMARK  status: ('A' for Active; 'I' for Inactive)
REMARK    1  A    between atoms: _2  and  _3
REMARK    2  A    between atoms: _2  and  _5
REMARK    3  A    between atoms: _10  and  _11
REMARK    4  A    between atoms: _11  and  _12
REMARK    5  A    between atoms: _11  and  _14
REMARK    6  A    between atoms: _14  and  _15
REMARK    7  A    between atoms: _14  and  _16
REMARK    8  A    between atoms: _26  and  _27
REMARK    9  A    between atoms: _27  and  _28
REMARK   10  A    between atoms: _27  and  _30
REMARK   11  A    between atoms: _30  and  _31
REMARK   12  A    between atoms: _31  and  _32
REMARK   13  A    between atoms: _41  and  _42
REMARK   14  A    between atoms: _42  and  _43
REMARK   15  A    between atoms: _42  and  _45
REMARK   16  A    between atoms: _45  and  _46
REMARK   17  A    between atoms: _45  and  _47
REMARK   18  A    between atoms: _55  and  _56
REMARK   19  A    between atoms: _56  and  _57
REMARK   20  A    between atoms: _56  and  _59
REMARK   21  A    between atoms: _59  and  _60
REMARK   22  A    between atoms: _75  and  _76
REMARK   23  A    between atoms: _76  and  _77
REMARK   24  A    between atoms: _76  and  _79
REMARK   25  A    between atoms: _85  and  _86
REMARK   26  A    between atoms: _86  and  _87
REMARK   27  A    between atoms: _86  and  _89
REMARK   28  A    between atoms: _89  and  _90
REMARK   29  A    between atoms: _105  and  _106
REMARK   30  A    between atoms: _106  and  _107
REMARK   31  A    between atoms: _106  and  _109
REMARK   32  A    between atoms: _109  and  _110
REMARK   33  A    between atoms: _110  and  _111
REMARK   34  A    between atoms: _122  and  _123
REMARK   35  A    between atoms: _123  and  _124
REMARK   36  A    between atoms: _123  and  _126
REMARK   37  A    between atoms: _132  and  _133
REMARK   38  A    between atoms: _133  and  _134
REMARK   39  A    between atoms: _133  and  _136
REMARK   40  A    between atoms: _136  and  _137
REMARK   41  A    between atoms: _137  and  _138
REMARK   42  A    between atoms: _147  and  _148
REMARK   43  A    between atoms: _148  and  _149
REMARK   44  A    between atoms: _148  and  _151
REMARK   45  A    between atoms: _151  and  _152
REMARK   46  A    between atoms: _151  and  _153
REMARK   47  A    between atoms: _152  and  _154
REMARK   48  A    between atoms: _166  and  _167
REMARK   49  A    between atoms: _167  and  _168
REMARK   50  A    between atoms: _167  and  _170
REMARK   51  A    between atoms: _176  and  _177
REMARK   52  A    between atoms: _177  and  _178
REMARK   53  A    between atoms: _177  and  _180
REMARK   54  A    between atoms: _180  and  _181
REMARK   55  A    between atoms: _181  and  _182
REMARK   56  A    between atoms: _193  and  _194
REMARK   57  A    between atoms: _194  and  _195
REMARK   58  A    between atoms: _194  and  _197
REMARK   59  A    between atoms: _197  and  _198
REMARK   60  A    between atoms: _198  and  _199
REMARK   61  A    between atoms: _198  and  _200
REMARK   62  A    between atoms: _212  and  _213
REMARK   63  A    between atoms: _213  and  _214
REMARK   64  A    between atoms: _213  and  _216
REMARK   65  A    between atoms: _216  and  _217
REMARK   66  A    between atoms: _217  and  _218
REMARK   67  A    between atoms: _218  and  _219
REMARK   68  A    between atoms: _229  and  _230
REMARK   69  A    between atoms: _230  and  _231
REMARK   70  A    between atoms: _230  and  _233
REMARK   71  A    between atoms: _233  and  _234
REMARK   72  A    between atoms: _240  and  _241
REMARK   73  A    between atoms: _241  and  _242
REMARK   74  A    between atoms: _241  and  _244
REMARK   75  A    between atoms: _244  and  _245
REMARK   76  A    between atoms: _245  and  _246
REMARK   77  A    between atoms: _245  and  _247
REMARK   78  A    between atoms: _259  and  _260
REMARK   79  A    between atoms: _260  and  _261
REMARK   80  A    between atoms: _260  and  _263
REMARK   81  A    between atoms: _263  and  _264
REMARK   82  A    between atoms: _263  and  _265
REMARK   83  A    between atoms: _264  and  _266
REMARK   84  A    between atoms: _278  and  _279
REMARK   85  A    between atoms: _279  and  _280
REMARK   86  A    between atoms: _279  and  _282
REMARK   87  A    between atoms: _282  and  _283
REMARK   88  A    between atoms: _282  and  _284
REMARK   89  A    between atoms: _283  and  _285
REMARK   90  A    between atoms: _297  and  _298
REMARK   91  A    between atoms: _298  and  _299
REMARK   92  A    between atoms: _298  and  _301
REMARK   93  A    between atoms: _301  and  _302
REMARK   94  A    between atoms: _311  and  _312
REMARK   95  A    between atoms: _312  and  _313
REMARK   96  A    between atoms: _312  and  _315
REMARK   97  A    between atoms: _315  and  _316
REMARK   98  A    between atoms: _315  and  _317
REMARK   99  A    between atoms: _325  and  _326
REMARK  100  A    between atoms: _326  and  _327
REMARK  101  A    between atoms: _326  and  _329
REMARK  102  A    between atoms: _329  and  _330
REMARK  103  A    between atoms: _345  and  _346
REMARK  104  A    between atoms: _346  and  _347
REMARK  105  A    between atoms: _346  and  _349
REMARK  106  A    between atoms: _349  and  _350
REMARK  107  A    between atoms: _355  and  _356
REMARK  108  A    between atoms: _366  and  _367
REMARK  109  A    between atoms: _367  and  _368
REMARK  110  A    between atoms: _367  and  _370
REMARK  111  A    between atoms: _370  and  _371
REMARK  112  A    between atoms: _377  and  _378
REMARK  113  A    between atoms: _378  and  _379
REMARK  114  A    between atoms: _378  and  _381
REMARK  115  A    between atoms: _381  and  _382
REMARK  116  A    between atoms: _391  and  _392
REMARK  117  A    between atoms: _392  and  _393
REMARK  118  A    between atoms: _392  and  _395
REMARK  119  A    between atoms: _395  and  _396
REMARK  120  A    between atoms: _396  and  _397
REMARK  121  A    between atoms: _397  and  _398
REMARK  122  A    between atoms: _398  and  _399
REMARK  123  A    between atoms: _413  and  _414
REMARK  124  A    between atoms: _414  and  _415
REMARK  125  A    between atoms: _414  and  _417
REMARK  126  A    between atoms: _417  and  _418
REMARK  127  A    between atoms: _418  and  _419
REMARK  128  A    between atoms: _428  and  _429
REMARK  129  A    between atoms: _429  and  _430
REMARK  130  A    between atoms: _429  and  _432
REMARK  131  A    between atoms: _432  and  _433
REMARK  132  A    between atoms: _432  and  _434
REMARK  133  A    between atoms: _433  and  _435
REMARK  134  A    between atoms: _447  and  _448
REMARK  135  A    between atoms: _448  and  _449
REMARK  136  A    between atoms: _448  and  _451
REMARK  137  A    between atoms: _451  and  _452
REMARK  138  A    between atoms: _467  and  _468
REMARK  139  A    between atoms: _468  and  _469
REMARK  140  A    between atoms: _468  and  _471
REMARK  141  A    between atoms: _471  and  _472
REMARK  142  A    between atoms: _472  and  _473
REMARK  143  A    between atoms: _472  and  _474
REMARK  144  A    between atoms: _486  and  _487
REMARK  145  A    between atoms: _487  and  _488
REMARK  146  A    between atoms: _487  and  _490
REMARK  147  A    between atoms: _490  and  _491
REMARK  148  A    between atoms: _491  and  _492
REMARK  149  A    between atoms: _492  and  _493
REMARK  150  A    between atoms: _510  and  _511
REMARK  151  A    between atoms: _511  and  _512
REMARK  152  A    between atoms: _511  and  _514
REMARK  153  A    between atoms: _514  and  _515
REMARK  154  A    between atoms: _515  and  _516
REMARK  155  A    between atoms: _525  and  _526
REMARK  156  A    between atoms: _526  and  _527
REMARK  157  A    between atoms: _526  and  _529
REMARK  158  A    between atoms: _529  and  _530
REMARK  159  A    between atoms: _530  and  _531
REMARK  160  A    between atoms: _530  and  _532
REMARK  161  A    between atoms: _544  and  _545
REMARK  162  A    between atoms: _545  and  _546
REMARK  163  A    between atoms: _545  and  _548
REMARK  164  A    between atoms: _548  and  _549
REMARK  165  A    between atoms: _548  and  _550
REMARK  166  A    between atoms: _549  and  _551
REMARK  167  A    between atoms: _563  and  _564
REMARK  168  A    between atoms: _564  and  _565
REMARK  169  A    between atoms: _564  and  _567
REMARK  170  A    between atoms: _567  and  _568
REMARK  171  A    between atoms: _574  and  _575
REMARK  172  A    between atoms: _575  and  _576
REMARK  173  A    between atoms: _575  and  _578
REMARK  174  A    between atoms: _578  and  _579
REMARK  175  A    between atoms: _588  and  _589
REMARK  176  A    between atoms: _589  and  _590
REMARK  177  A    between atoms: _589  and  _592
REMARK  178  A    between atoms: _592  and  _593
REMARK  179  A    between atoms: _599  and  _600
REMARK  180  A    between atoms: _600  and  _601
REMARK  181  A    between atoms: _600  and  _603
REMARK  182  A    between atoms: _603  and  _604
REMARK  183  A    between atoms: _610  and  _611
REMARK  184  A    between atoms: _611  and  _612
REMARK  185  A    between atoms: _611  and  _614
REMARK  186  A    between atoms: _614  and  _615
REMARK  187  A    between atoms: _622  and  _623
REMARK  188  A    between atoms: _623  and  _624
REMARK  189  A    between atoms: _623  and  _626
REMARK  190  A    between atoms: _632  and  _633
REMARK  191  A    between atoms: _633  and  _634
REMARK  192  A    between atoms: _633  and  _636
REMARK  193  A    between atoms: _636  and  _637
REMARK  194  A    between atoms: _637  and  _638
REMARK  195  A    between atoms: _637  and  _639
REMARK  196  A    between atoms: _651  and  _652
REMARK  197  A    between atoms: _652  and  _653
REMARK  198  A    between atoms: _652  and  _655
REMARK  199  A    between atoms: _655  and  _656
REMARK  200  A    between atoms: _663  and  _664
REMARK  201  A    between atoms: _664  and  _665
REMARK  202  A    between atoms: _664  and  _667
REMARK  203  A    between atoms: _667  and  _668
REMARK  204  A    between atoms: _668  and  _669
REMARK  205  A    between atoms: _669  and  _670
REMARK  206  A    between atoms: _670  and  _671
REMARK  207  A    between atoms: _685  and  _686
REMARK  208  A    between atoms: _686  and  _687
REMARK  209  A    between atoms: _686  and  _689
REMARK  210  A    between atoms: _689  and  _690
REMARK  211  A    between atoms: _689  and  _691
REMARK  212  A    between atoms: _690  and  _692
REMARK  213  A    between atoms: _704  and  _705
REMARK  214  A    between atoms: _705  and  _706
REMARK  215  A    between atoms: _705  and  _708
REMARK  216  A    between atoms: _708  and  _709
REMARK  217  A    between atoms: _709  and  _710
REMARK  218  A    between atoms: _710  and  _711
REMARK  219  A    between atoms: _728  and  _729
REMARK  220  A    between atoms: _729  and  _730
REMARK  221  A    between atoms: _729  and  _732
REMARK  222  A    between atoms: _732  and  _733
REMARK  223  A    between atoms: _738  and  _739
REMARK  224  A    between atoms: _749  and  _750
REMARK  225  A    between atoms: _750  and  _751
REMARK  226  A    between atoms: _750  and  _753
REMARK  227  A    between atoms: _753  and  _754
REMARK  228  A    between atoms: _754  and  _755
REMARK  229  A    between atoms: _764  and  _765
REMARK  230  A    between atoms: _765  and  _766
REMARK  231  A    between atoms: _765  and  _768
REMARK  232  A    between atoms: _772  and  _773
REMARK  233  A    between atoms: _773  and  _774
REMARK  234  A    between atoms: _773  and  _776
REMARK  235  A    between atoms: _776  and  _777
REMARK  236  A    between atoms: _777  and  _778
REMARK  237  A    between atoms: _777  and  _779
REMARK  238  A    between atoms: _791  and  _792
REMARK  239  A    between atoms: _792  and  _793
REMARK  240  A    between atoms: _792  and  _795
REMARK  241  A    between atoms: _795  and  _796
REMARK  242  A    between atoms: _795  and  _797
REMARK  243  A    between atoms: _805  and  _806
REMARK  244  A    between atoms: _806  and  _807
REMARK  245  A    between atoms: _806  and  _809
REMARK  246  A    between atoms: _809  and  _810
REMARK  247  A    between atoms: _818  and  _819
REMARK  248  A    between atoms: _831  and  _832
REMARK  249  A    between atoms: _832  and  _833
REMARK  250  A    between atoms: _832  and  _835
REMARK  251  A    between atoms: _835  and  _836
REMARK  252  A    between atoms: _842  and  _843
REMARK  253  A    between atoms: _843  and  _844
REMARK  254  A    between atoms: _843  and  _846
REMARK  255  A    between atoms: _846  and  _847
REMARK  256  A    between atoms: _847  and  _848
REMARK  257  A    between atoms: _848  and  _849
REMARK  258  A    between atoms: _849  and  _850
REMARK  259  A    between atoms: _864  and  _865
REMARK  260  A    between atoms: _865  and  _866
REMARK  261  A    between atoms: _865  and  _868
REMARK  262  A    between atoms: _868  and  _869
REMARK  263  A    between atoms: _869  and  _870
REMARK  264  A    between atoms: _869  and  _871
REMARK  265  A    between atoms: _883  and  _884
REMARK  266  A    between atoms: _884  and  _885
REMARK  267  A    between atoms: _884  and  _887
REMARK  268  A    between atoms: _887  and  _888
REMARK  269  A    between atoms: _895  and  _896
REMARK  270  A    between atoms: _896  and  _897
REMARK  271  A    between atoms: _896  and  _899
REMARK  272  A    between atoms: _899  and  _900
REMARK  273  A    between atoms: _906  and  _907
REMARK  274  A    between atoms: _907  and  _908
REMARK  275  A    between atoms: _913  and  _914
REMARK  276  A    between atoms: _914  and  _915
REMARK  277  A    between atoms: _914  and  _917
REMARK  278  A    between atoms: _917  and  _918
REMARK  279  A    between atoms: _918  and  _919
REMARK  280  A    between atoms: _919  and  _920
REMARK  281  A    between atoms: _920  and  _921
REMARK  282  A    between atoms: _935  and  _936
REMARK  283  A    between atoms: _936  and  _937
REMARK  284  A    between atoms: _936  and  _939
REMARK  285  A    between atoms: _939  and  _940
REMARK  286  A    between atoms: _940  and  _941
REMARK  287  A    between atoms: _950  and  _951
REMARK  288  A    between atoms: _951  and  _952
REMARK  289  A    between atoms: _951  and  _954
REMARK  290  A    between atoms: _954  and  _955
REMARK  291  A    between atoms: _955  and  _956
REMARK  292  A    between atoms: _955  and  _957
REMARK  293  A    between atoms: _969  and  _970
REMARK  294  A    between atoms: _970  and  _971
REMARK  295  A    between atoms: _970  and  _973
REMARK  296  A    between atoms: _973  and  _974
REMARK  297  A    between atoms: _986  and  _987
REMARK  298  A    between atoms: _987  and  _988
REMARK  299  A    between atoms: _987  and  _990
REMARK  300  A    between atoms: _990  and  _991
REMARK  301  A    between atoms: _990  and  _992
REMARK  302  A    between atoms: _991  and  _993
REMARK  303  A    between atoms: _1005  and  _1006
REMARK  304  A    between atoms: _1006  and  _1007
REMARK  305  A    between atoms: _1006  and  _1009
REMARK  306  A    between atoms: _1009  and  _1010
REMARK  307  A    between atoms: _1019  and  _1020
REMARK  308  A    between atoms: _1020  and  _1021
REMARK  309  A    between atoms: _1020  and  _1023
REMARK  310  A    between atoms: _1023  and  _1024
REMARK  311  A    between atoms: _1024  and  _1025
REMARK  312  A    between atoms: _1024  and  _1026
REMARK  313  A    between atoms: _1038  and  _1039
REMARK  314  A    between atoms: _1039  and  _1040
REMARK  315  A    between atoms: _1039  and  _1042
REMARK  316  A    between atoms: _1042  and  _1043
REMARK  317  A    between atoms: _1042  and  _1044
REMARK  318  A    between atoms: _1043  and  _1045
REMARK  319  A    between atoms: _1058  and  _1059
REMARK  320  A    between atoms: _1071  and  _1072
REMARK  321  A    between atoms: _1072  and  _1073
REMARK  322  A    between atoms: _1072  and  _1075
REMARK  323  A    between atoms: _1075  and  _1076
REMARK  324  A    between atoms: _1085  and  _1086
REMARK  325  A    between atoms: _1086  and  _1087
REMARK  326  A    between atoms: _1086  and  _1089
REMARK  327  A    between atoms: _1089  and  _1090
REMARK  328  A    between atoms: _1090  and  _1091
REMARK  329  A    between atoms: _1091  and  _1092
REMARK  330  A    between atoms: _1092  and  _1093
REMARK  331  A    between atoms: _1107  and  _1108
REMARK  332  A    between atoms: _1108  and  _1109
REMARK  333  A    between atoms: _1108  and  _1111
REMARK  334  A    between atoms: _1111  and  _1112
REMARK  335  A    between atoms: _1112  and  _1113
REMARK  336  A    between atoms: _1124  and  _1125
REMARK  337  A    between atoms: _1125  and  _1126
REMARK  338  A    between atoms: _1125  and  _1128
REMARK  339  A    between atoms: _1128  and  _1129
REMARK  340  A    between atoms: _1136  and  _1137
REMARK  341  A    between atoms: _1137  and  _1138
REMARK  342  A    between atoms: _1137  and  _1140
REMARK  343  A    between atoms: _1140  and  _1141
REMARK  344  A    between atoms: _1141  and  _1142
REMARK  345  A    between atoms: _1142  and  _1143
REMARK  346  A    between atoms: _1160  and  _1161
REMARK  347  A    between atoms: _1161  and  _1162
REMARK  348  A    between atoms: _1161  and  _1164
REMARK  349  A    between atoms: _1164  and  _1165
REMARK  350  A    between atoms: _1164  and  _1166
REMARK  351  A    between atoms: _1174  and  _1175
REMARK  352  A    between atoms: _1175  and  _1176
REMARK  353  A    between atoms: _1175  and  _1178
REMARK  354  A    between atoms: _1178  and  _1179
REMARK  355  A    between atoms: _1179  and  _1180
REMARK  356  A    between atoms: _1179  and  _1181
REMARK  357  A    between atoms: _1193  and  _1194
REMARK  358  A    between atoms: _1194  and  _1195
REMARK  359  A    between atoms: _1194  and  _1197
REMARK  360  A    between atoms: _1197  and  _1198
REMARK  361  A    between atoms: _1197  and  _1199
REMARK  362  A    between atoms: _1207  and  _1208
REMARK  363  A    between atoms: _1208  and  _1209
REMARK  364  A    between atoms: _1208  and  _1211
REMARK  365  A    between atoms: _1211  and  _1212
REMARK  366  A    between atoms: _1211  and  _1213
REMARK  367  A    between atoms: _1212  and  _1214
REMARK  368  A    between atoms: _1226  and  _1227
REMARK  369  A    between atoms: _1227  and  _1228
REMARK  370  A    between atoms: _1227  and  _1230
REMARK  371  A    between atoms: _1230  and  _1231
REMARK  372  A    between atoms: _1230  and  _1232
REMARK  373  A    between atoms: _1242  and  _1243
REMARK  374  A    between atoms: _1243  and  _1244
REMARK  375  A    between atoms: _1243  and  _1246
REMARK  376  A    between atoms: _1246  and  _1247
REMARK  377  A    between atoms: _1254  and  _1255
REMARK  378  A    between atoms: _1255  and  _1256
REMARK  379  A    between atoms: _1255  and  _1258
REMARK  380  A    between atoms: _1258  and  _1259
REMARK  381  A    between atoms: _1258  and  _1260
REMARK  382  A    between atoms: _1268  and  _1269
REMARK  383  A    between atoms: _1269  and  _1270
REMARK  384  A    between atoms: _1275  and  _1276
REMARK  385  A    between atoms: _1276  and  _1277
REMARK  386  A    between atoms: _1276  and  _1279
REMARK  387  A    between atoms: _1279  and  _1280
REMARK  388  A    between atoms: _1279  and  _1281
REMARK  389  A    between atoms: _1280  and  _1282
REMARK  390  A    between atoms: _1294  and  _1295
REMARK  391  A    between atoms: _1295  and  _1296
REMARK  392  A    between atoms: _1301  and  _1302
REMARK  393  A    between atoms: _1302  and  _1303
REMARK  394  A    between atoms: _1302  and  _1305
REMARK  395  A    between atoms: _1305  and  _1306
REMARK  396  A    between atoms: _1306  and  _1307
REMARK  397  A    between atoms: _1307  and  _1308
REMARK  398  A    between atoms: _1318  and  _1319
REMARK  399  A    between atoms: _1319  and  _1320
REMARK  400  A    between atoms: _1319  and  _1322
REMARK  401  A    between atoms: _1322  and  _1323
REMARK  402  A    between atoms: _1322  and  _1324
REMARK  403  A    between atoms: _1332  and  _1333
REMARK  404  A    between atoms: _1333  and  _1334
REMARK  405  A    between atoms: _1333  and  _1336
REMARK  406  A    between atoms: _1336  and  _1337
REMARK  407  A    between atoms: _1337  and  _1338
REMARK  408  A    between atoms: _1338  and  _1339
REMARK  409  A    between atoms: _1339  and  _1340
REMARK  410  A    between atoms: _1354  and  _1355
REMARK  411  A    between atoms: _1355  and  _1356
REMARK  412  A    between atoms: _1355  and  _1358
REMARK  413  A    between atoms: _1364  and  _1365
REMARK  414  A    between atoms: _1365  and  _1366
REMARK  415  A    between atoms: _1365  and  _1368
REMARK  416  A    between atoms: _1368  and  _1369
REMARK  417  A    between atoms: _1376  and  _1377
REMARK  418  A    between atoms: _1377  and  _1378
REMARK  419  A    between atoms: _1377  and  _1380
REMARK  420  A    between atoms: _1380  and  _1381
REMARK  421  A    between atoms: _1381  and  _1382
REMARK  422  A    between atoms: _1381  and  _1383
REMARK  423  A    between atoms: _1395  and  _1396
REMARK  424  A    between atoms: _1396  and  _1399
REMARK  425  A    between atoms: _1399  and  _1400
REMARK  426  A    between atoms: _1399  and  _1401
REMARK  427  A    between atoms: _1400  and  _1402
REMARK  428  A    between atoms: _1422  and  _1425
REMARK  429  A    between atoms: _1424  and  _1428
REMARK  430  A    between atoms: _1425  and  _1427
REMARK  431  A    between atoms: _1443  and  _1444
REMARK  432  A    between atoms: _1443  and  _1446
REMARK  433  A    between atoms: _1446  and  _1447
REMARK  434  A    between atoms: _1457  and  _1458
REMARK  435  A    between atoms: _1458  and  _1459
REMARK  436  A    between atoms: _1458  and  _1461
REMARK  437  A    between atoms: _1461  and  _1462
REMARK  438  A    between atoms: _1462  and  _1463
REMARK  439  A    between atoms: _1462  and  _1464
REMARK  440  A    between atoms: _1476  and  _1477
REMARK  441  A    between atoms: _1477  and  _1478
REMARK  442  A    between atoms: _1483  and  _1484
REMARK  443  A    between atoms: _1484  and  _1485
REMARK  444  A    between atoms: _1484  and  _1487
REMARK  445  A    between atoms: _1487  and  _1488
REMARK  446  A    between atoms: _1487  and  _1489
REMARK  447  A    between atoms: _1497  and  _1498
REMARK  448  A    between atoms: _1498  and  _1499
REMARK  449  A    between atoms: _1498  and  _1501
REMARK  450  A    between atoms: _1501  and  _1502
REMARK  451  A    between atoms: _1501  and  _1503
REMARK  452  A    between atoms: _1502  and  _1504
REMARK  453  A    between atoms: _1516  and  _1517
REMARK  454  A    between atoms: _1517  and  _1518
REMARK  455  A    between atoms: _1517  and  _1520
REMARK  456  A    between atoms: _1526  and  _1527
REMARK  457  A    between atoms: _1527  and  _1528
REMARK  458  A    between atoms: _1527  and  _1530
REMARK  459  A    between atoms: _1530  and  _1531
REMARK  460  A    between atoms: _1531  and  _1532
REMARK  461  A    between atoms: _1532  and  _1533
REMARK  462  A    between atoms: _1533  and  _1534
REMARK  463  A    between atoms: _1548  and  _1549
REMARK  464  A    between atoms: _1549  and  _1550
REMARK  465  A    between atoms: _1549  and  _1552
REMARK  466  A    between atoms: _1552  and  _1553
REMARK  467  A    between atoms: _1559  and  _1560
REMARK  468  A    between atoms: _1560  and  _1561
REMARK  469  A    between atoms: _1566  and  _1567
REMARK  470  A    between atoms: _1567  and  _1568
REMARK  471  A    between atoms: _1567  and  _1570
REMARK  472  A    between atoms: _1570  and  _1571
REMARK  473  A    between atoms: _1570  and  _1572
REMARK  474  A    between atoms: _1580  and  _1581
REMARK  475  A    between atoms: _1581  and  _1582
REMARK  476  A    between atoms: _1581  and  _1584
REMARK  477  A    between atoms: _1584  and  _1585
REMARK  478  A    between atoms: _1585  and  _1586
REMARK  479  A    between atoms: _1586  and  _1587
REMARK  480  A    between atoms: _1587  and  _1588
REMARK  481  A    between atoms: _1602  and  _1603
REMARK  482  A    between atoms: _1603  and  _1604
REMARK  483  A    between atoms: _1603  and  _1606
REMARK  484  A    between atoms: _1612  and  _1613
REMARK  485  A    between atoms: _1613  and  _1614
REMARK  486  A    between atoms: _1613  and  _1616
REMARK  487  A    between atoms: _1616  and  _1617
REMARK  488  A    between atoms: _1632  and  _1633
REMARK  489  A    between atoms: _1633  and  _1634
REMARK  490  A    between atoms: _1633  and  _1636
REMARK  491  A    between atoms: _1636  and  _1637
REMARK  492  A    between atoms: _1637  and  _1638
REMARK  493  A    between atoms: _1638  and  _1639
REMARK  494  A    between atoms: _1649  and  _1650
REMARK  495  A    between atoms: _1650  and  _1651
REMARK  496  A    between atoms: _1650  and  _1653
REMARK  497  A    between atoms: _1653  and  _1654
REMARK  498  A    between atoms: _1654  and  _1655
REMARK  499  A    between atoms: _1664  and  _1665
REMARK  500  A    between atoms: _1665  and  _1666
REMARK  501  A    between atoms: _1665  and  _1668
REMARK  502  A    between atoms: _1674  and  _1675
REMARK  503  A    between atoms: _1675  and  _1676
REMARK  504  A    between atoms: _1675  and  _1678
REMARK  505  A    between atoms: _1678  and  _1679
REMARK  506  A    between atoms: _1679  and  _1680
REMARK  507  A    between atoms: _1679  and  _1681
REMARK  508  A    between atoms: _1693  and  _1694
REMARK  509  A    between atoms: _1694  and  _1695
REMARK  510  A    between atoms: _1694  and  _1697
REMARK  511  A    between atoms: _1697  and  _1698
REMARK  512  A    between atoms: _1698  and  _1699
REMARK  513  A    between atoms: _1710  and  _1711
REMARK  514  A    between atoms: _1711  and  _1712
REMARK  515  A    between atoms: _1711  and  _1714
REMARK  516  A    between atoms: _1720  and  _1721
REMARK  517  A    between atoms: _1721  and  _1722
REMARK  518  A    between atoms: _1727  and  _1728
REMARK  519  A    between atoms: _1728  and  _1729
REMARK  520  A    between atoms: _1728  and  _1731
REMARK  521  A    between atoms: _1737  and  _1738
REMARK  522  A    between atoms: _1738  and  _1739
REMARK  523  A    between atoms: _1738  and  _1741
REMARK  524  A    between atoms: _1741  and  _1742
REMARK  525  A    between atoms: _1749  and  _1750
REMARK  526  A    between atoms: _1750  and  _1751
REMARK  527  A    between atoms: _1750  and  _1753
REMARK  528  A    between atoms: _1753  and  _1754
REMARK  529  A    between atoms: _1753  and  _1755
REMARK  530  A    between atoms: _1754  and  _1756
REMARK  531  A    between atoms: _1768  and  _1769
REMARK  532  A    between atoms: _1769  and  _1772
REMARK  533  A    between atoms: _1772  and  _1773
REMARK  534  A    between atoms: _1791  and  _1793
REMARK  535  A    between atoms: _1792  and  _1794
REMARK  536  A    between atoms: _1814  and  _1815
REMARK  537  A    between atoms: _1814  and  _1817
REMARK  538  A    between atoms: _1817  and  _1818
REMARK  539  A    between atoms: _1817  and  _1819
REMARK  540  A    between atoms: _1818  and  _1820
REMARK  541  A    between atoms: _1833  and  _1834
REMARK  542  A    between atoms: _1834  and  _1835
REMARK  543  A    between atoms: _1840  and  _1841
REMARK  544  A    between atoms: _1841  and  _1842
REMARK  545  A    between atoms: _1841  and  _1844
REMARK  546  A    between atoms: _1844  and  _1845
REMARK  547  A    between atoms: _1845  and  _1846
REMARK  548  A    between atoms: _1857  and  _1858
REMARK  549  A    between atoms: _1858  and  _1859
REMARK  550  A    between atoms: _1858  and  _1861
REMARK  551  A    between atoms: _1861  and  _1862
REMARK  552  A    between atoms: _1877  and  _1878
REMARK  553  A    between atoms: _1878  and  _1879
REMARK  554  A    between atoms: _1884  and  _1885
REMARK  555  A    between atoms: _1885  and  _1886
REMARK  556  A    between atoms: _1885  and  _1888
REMARK  557  A    between atoms: _1888  and  _1889
REMARK  558  A    between atoms: _1888  and  _1890
REMARK  559  A    between atoms: _1900  and  _1901
REMARK  560  A    between atoms: _1901  and  _1902
REMARK  561  A    between atoms: _1907  and  _1908
REMARK  562  A    between atoms: _1908  and  _1909
REMARK  563  A    between atoms: _1908  and  _1911
REMARK  564  A    between atoms: _1911  and  _1912
REMARK  565  A    between atoms: _1927  and  _1928
REMARK  566  A    between atoms: _1928  and  _1929
REMARK  567  A    between atoms: _1928  and  _1931
REMARK  568  A    between atoms: _1931  and  _1932
REMARK  569  A    between atoms: _1937  and  _1938
REMARK  570  A    between atoms: _1948  and  _1949
REMARK  571  A    between atoms: _1949  and  _1950
REMARK  572  A    between atoms: _1949  and  _1952
REMARK  573  A    between atoms: _1952  and  _1953
REMARK  574  A    between atoms: _1959  and  _1960
REMARK  575  A    between atoms: _1960  and  _1961
REMARK  576  A    between atoms: _1960  and  _1963
REMARK  577  A    between atoms: _1969  and  _1970
REMARK  578  A    between atoms: _1970  and  _1971
REMARK  579  A    between atoms: _1970  and  _1973
REMARK  580  A    between atoms: _1973  and  _1974
REMARK  581  A    between atoms: _1979  and  _1980
REMARK  582  A    between atoms: _1990  and  _1991
REMARK  583  A    between atoms: _1991  and  _1992
REMARK  584  A    between atoms: _1991  and  _1994
REMARK  585  A    between atoms: _1994  and  _1995
REMARK  586  A    between atoms: _1995  and  _1996
REMARK  587  A    between atoms: _1995  and  _1997
REMARK  588  A    between atoms: _2009  and  _2010
REMARK  589  A    between atoms: _2010  and  _2011
REMARK  590  A    between atoms: _2010  and  _2013
REMARK  591  A    between atoms: _2013  and  _2014
REMARK  592  A    between atoms: _2013  and  _2015
REMARK  593  A    between atoms: _2025  and  _2026
REMARK  594  A    between atoms: _2026  and  _2027
REMARK  595  A    between atoms: _2026  and  _2029
REMARK  596  A    between atoms: _2035  and  _2036
REMARK  597  A    between atoms: _2036  and  _2037
REMARK  598  A    between atoms: _2036  and  _2039
REMARK  599  A    between atoms: _2039  and  _2040
REMARK  600  A    between atoms: _2040  and  _2041
REMARK  601  A    between atoms: _2050  and  _2051
REMARK  602  A    between atoms: _2051  and  _2052
REMARK  603  A    between atoms: _2051  and  _2054
REMARK  604  A    between atoms: _2054  and  _2055
REMARK  605  A    between atoms: _2055  and  _2056
REMARK  606  A    between atoms: _2056  and  _2057
REMARK  607  A    between atoms: _2057  and  _2058
REMARK  608  A    between atoms: _2072  and  _2073
REMARK  609  A    between atoms: _2073  and  _2074
REMARK  610  A    between atoms: _2073  and  _2076
REMARK  611  A    between atoms: _2076  and  _2077
REMARK  612  A    between atoms: _2076  and  _2078
REMARK  613  A    between atoms: _2088  and  _2089
REMARK  614  A    between atoms: _2089  and  _2090
REMARK  615  A    between atoms: _2089  and  _2092
REMARK  616  A    between atoms: _2092  and  _2093
REMARK  617  A    between atoms: _2092  and  _2094
REMARK  618  A    between atoms: _2102  and  _2103
REMARK  619  A    between atoms: _2103  and  _2104
REMARK  620  A    between atoms: _2103  and  _2106
REMARK  621  A    between atoms: _2106  and  _2107
REMARK  622  A    between atoms: _2106  and  _2108
REMARK  623  A    between atoms: _2118  and  _2119
REMARK  624  A    between atoms: _2119  and  _2120
REMARK  625  A    between atoms: _2119  and  _2122
REMARK  626  A    between atoms: _2122  and  _2123
REMARK  627  A    between atoms: _2122  and  _2124
REMARK  628  A    between atoms: _2123  and  _2125
REMARK  629  A    between atoms: _2137  and  _2138
REMARK  630  A    between atoms: _2138  and  _2139
REMARK  631  A    between atoms: _2138  and  _2141
REMARK  632  A    between atoms: _2141  and  _2142
REMARK  633  A    between atoms: _2141  and  _2143
REMARK  634  A    between atoms: _2151  and  _2152
REMARK  635  A    between atoms: _2152  and  _2153
REMARK  636  A    between atoms: _2152  and  _2155
REMARK  637  A    between atoms: _2155  and  _2156
REMARK  638  A    between atoms: _2156  and  _2157
REMARK  639  A    between atoms: _2157  and  _2158
REMARK  640  A    between atoms: _2158  and  _2159
REMARK  641  A    between atoms: _2173  and  _2174
REMARK  642  A    between atoms: _2174  and  _2175
REMARK  643  A    between atoms: _2174  and  _2177
REMARK  644  A    between atoms: _2177  and  _2178
REMARK  645  A    between atoms: _2190  and  _2191
REMARK  646  A    between atoms: _2191  and  _2192
REMARK  647  A    between atoms: _2191  and  _2194
REMARK  648  A    between atoms: _2194  and  _2195
REMARK  649  A    between atoms: _2204  and  _2205
REMARK  650  A    between atoms: _2205  and  _2206
REMARK  651  A    between atoms: _2205  and  _2208
REMARK  652  A    between atoms: _2208  and  _2209
REMARK  653  A    between atoms: _2216  and  _2217
REMARK  654  A    between atoms: _2217  and  _2218
REMARK  655  A    between atoms: _2217  and  _2220
REMARK  656  A    between atoms: _2220  and  _2221
REMARK  657  A    between atoms: _2228  and  _2229
REMARK  658  A    between atoms: _2229  and  _2230
REMARK  659  A    between atoms: _2229  and  _2232
REMARK  660  A    between atoms: _2232  and  _2233
REMARK  661  A    between atoms: _2233  and  _2234
REMARK  662  A    between atoms: _2243  and  _2244
REMARK  663  A    between atoms: _2244  and  _2245
REMARK  664  A    between atoms: _2244  and  _2247
REMARK  665  A    between atoms: _2247  and  _2248
REMARK  666  A    between atoms: _2248  and  _2249
REMARK  667  A    between atoms: _2260  and  _2261
REMARK  668  A    between atoms: _2261  and  _2262
REMARK  669  A    between atoms: _2261  and  _2264
REMARK  670  A    between atoms: _2264  and  _2265
REMARK  671  A    between atoms: _2270  and  _2271
REMARK  672  A    between atoms: _2281  and  _2282
REMARK  673  A    between atoms: _2282  and  _2283
REMARK  674  A    between atoms: _2282  and  _2285
REMARK  675  A    between atoms: _2291  and  _2292
REMARK  676  A    between atoms: _2292  and  _2293
REMARK  677  A    between atoms: _2292  and  _2295
REMARK  678  A    between atoms: _2295  and  _2296
REMARK  679  A    between atoms: _2315  and  _2316
REMARK  680  A    between atoms: _2316  and  _2317
REMARK  681  A    between atoms: _2316  and  _2319
REMARK  682  A    between atoms: _2319  and  _2320
REMARK  683  A    between atoms: _2320  and  _2321
REMARK  684  A    between atoms: _2330  and  _2331
REMARK  685  A    between atoms: _2331  and  _2332
REMARK  686  A    between atoms: _2331  and  _2334
REMARK  687  A    between atoms: _2334  and  _2335
REMARK  688  A    between atoms: _2341  and  _2342
REMARK  689  A    between atoms: _2342  and  _2343
REMARK  690  A    between atoms: _2342  and  _2345
REMARK  691  A    between atoms: _2345  and  _2346
REMARK  692  A    between atoms: _2352  and  _2353
REMARK  693  A    between atoms: _2353  and  _2354
REMARK  694  A    between atoms: _2353  and  _2356
REMARK  695  A    between atoms: _2362  and  _2363
REMARK  696  A    between atoms: _2363  and  _2364
REMARK  697  A    between atoms: _2369  and  _2370
REMARK  698  A    between atoms: _2370  and  _2371
REMARK  699  A    between atoms: _2376  and  _2377
REMARK  700  A    between atoms: _2377  and  _2378
REMARK  701  A    between atoms: _2377  and  _2380
REMARK  702  A    between atoms: _2380  and  _2381
REMARK  703  A    between atoms: _2387  and  _2388
REMARK  704  A    between atoms: _2388  and  _2389
REMARK  705  A    between atoms: _2388  and  _2391
REMARK  706  A    between atoms: _2391  and  _2392
REMARK  707  A    between atoms: _2407  and  _2408
REMARK  708  A    between atoms: _2408  and  _2409
REMARK  709  A    between atoms: _2408  and  _2411
REMARK  710  A    between atoms: _2411  and  _2412
REMARK  711  A    between atoms: _2411  and  _2413
REMARK  712  A    between atoms: _2421  and  _2422
REMARK  713  A    between atoms: _2422  and  _2423
REMARK  714  A    between atoms: _2422  and  _2425
REMARK  715  A    between atoms: _2425  and  _2426
REMARK  716  A    between atoms: _2425  and  _2427
REMARK  717  A    between atoms: _2437  and  _2438
REMARK  718  A    between atoms: _2438  and  _2439
REMARK  719  A    between atoms: _2438  and  _2441
REMARK  720  A    between atoms: _2441  and  _2442
REMARK  721  A    between atoms: _2442  and  _2443
REMARK  722  A    between atoms: _2443  and  _2444
REMARK  723  A    between atoms: _2461  and  _2462
REMARK  724  A    between atoms: _2462  and  _2463
REMARK  725  A    between atoms: _2462  and  _2465
REMARK  726  A    between atoms: _2465  and  _2466
REMARK  727  A    between atoms: _2465  and  _2467
REMARK  728  A    between atoms: _2475  and  _2476
REMARK  729  A    between atoms: _2476  and  _2477
REMARK  730  A    between atoms: _2476  and  _2479
REMARK  731  A    between atoms: _2479  and  _2480
REMARK  732  A    between atoms: _2487  and  _2488
REMARK  733  A    between atoms: _2488  and  _2489
REMARK  734  A    between atoms: _2488  and  _2491
REMARK  735  A    between atoms: _2491  and  _2492
REMARK  736  A    between atoms: _2491  and  _2493
REMARK  737  A    between atoms: _2501  and  _2502
REMARK  738  A    between atoms: _2502  and  _2503
REMARK  739  A    between atoms: _2508  and  _2509
REMARK  740  A    between atoms: _2509  and  _2510
REMARK  741  A    between atoms: _2509  and  _2512
REMARK  742  A    between atoms: _2512  and  _2513
REMARK  743  A    between atoms: _2513  and  _2514
REMARK  744  A    between atoms: _2524  and  _2525
REMARK  745  A    between atoms: _2537  and  _2538
REMARK  746  A    between atoms: _2538  and  _2539
REMARK  747  A    between atoms: _2538  and  _2541
REMARK  748  A    between atoms: _2541  and  _2542
REMARK  749  A    between atoms: _2542  and  _2543
REMARK  750  A    between atoms: _2543  and  _2544
REMARK  751  A    between atoms: _2554  and  _2555
REMARK  752  A    between atoms: _2555  and  _2556
REMARK  753  A    between atoms: _2561  and  _2562
REMARK  754  A    between atoms: _2562  and  _2563
REMARK  755  A    between atoms: _2562  and  _2565
REMARK  756  A    between atoms: _2565  and  _2566
REMARK  757  A    between atoms: _2566  and  _2567
REMARK  758  A    between atoms: _2567  and  _2568
REMARK  759  A    between atoms: _2585  and  _2586
REMARK  760  A    between atoms: _2586  and  _2587
REMARK  761  A    between atoms: _2592  and  _2593
REMARK  762  A    between atoms: _2593  and  _2594
REMARK  763  A    between atoms: _2593  and  _2596
REMARK  764  A    between atoms: _2596  and  _2597
REMARK  765  A    between atoms: _2596  and  _2598
REMARK  766  A    between atoms: _2606  and  _2607
REMARK  767  A    between atoms: _2607  and  _2608
REMARK  768  A    between atoms: _2607  and  _2610
REMARK  769  A    between atoms: _2610  and  _2611
REMARK  770  A    between atoms: _2611  and  _2612
REMARK  771  A    between atoms: _2612  and  _2613
REMARK  772  A    between atoms: _2613  and  _2614
REMARK  773  A    between atoms: _2628  and  _2629
REMARK  774  A    between atoms: _2629  and  _2630
REMARK  775  A    between atoms: _2629  and  _2632
REMARK  776  A    between atoms: _2632  and  _2633
REMARK  777  A    between atoms: _2632  and  _2634
REMARK  778  A    between atoms: _2644  and  _2645
REMARK  779  A    between atoms: _2645  and  _2646
REMARK  780  A    between atoms: _2645  and  _2648
REMARK  781  A    between atoms: _2648  and  _2649
REMARK  782  A    between atoms: _2648  and  _2650
REMARK  783  A    between atoms: _2649  and  _2651
REMARK  784  A    between atoms: _2663  and  _2664
REMARK  785  A    between atoms: _2664  and  _2665
REMARK  786  A    between atoms: _2664  and  _2667
REMARK  787  A    between atoms: _2667  and  _2668
REMARK  788  A    between atoms: _2668  and  _2669
REMARK  789  A    between atoms: _2668  and  _2670
REMARK  790  A    between atoms: _2682  and  _2683
REMARK  791  A    between atoms: _2683  and  _2684
REMARK  792  A    between atoms: _2683  and  _2686
REMARK  793  A    between atoms: _2686  and  _2687
REMARK  794  A    between atoms: _2699  and  _2700
REMARK  795  A    between atoms: _2700  and  _2701
REMARK  796  A    between atoms: _2700  and  _2703
REMARK  797  A    between atoms: _2703  and  _2704
REMARK  798  A    between atoms: _2704  and  _2705
REMARK  799  A    between atoms: _2704  and  _2706
REMARK  800  A    between atoms: _2718  and  _2719
REMARK  801  A    between atoms: _2719  and  _2720
REMARK  802  A    between atoms: _2719  and  _2722
REMARK  803  A    between atoms: _2722  and  _2723
REMARK  804  A    between atoms: _2723  and  _2724
REMARK  805  A    between atoms: _2724  and  _2725
REMARK  806  A    between atoms: _2725  and  _2726
REMARK  807  A    between atoms: _2740  and  _2741
REMARK  808  A    between atoms: _2741  and  _2742
REMARK  809  A    between atoms: _2741  and  _2744
REMARK  810  A    between atoms: _2744  and  _2745
REMARK  811  A    between atoms: _2745  and  _2746
REMARK  812  A    between atoms: _2755  and  _2756
REMARK  813  A    between atoms: _2756  and  _2757
REMARK  814  A    between atoms: _2756  and  _2759
REMARK  815  A    between atoms: _2759  and  _2760
REMARK  816  A    between atoms: _2767  and  _2768
REMARK  817  A    between atoms: _2768  and  _2769
REMARK  818  A    between atoms: _2768  and  _2771
REMARK  819  A    between atoms: _2771  and  _2772
REMARK  820  A    between atoms: _2772  and  _2773
REMARK  821  A    between atoms: _2784  and  _2785
REMARK  822  A    between atoms: _2785  and  _2786
REMARK  823  A    between atoms: _2785  and  _2788
REMARK  824  A    between atoms: _2788  and  _2789
REMARK  825  A    between atoms: _2788  and  _2790
REMARK  826  A    between atoms: _2798  and  _2799
REMARK  827  A    between atoms: _2799  and  _2800
REMARK  828  A    between atoms: _2799  and  _2802
REMARK  829  A    between atoms: _2802  and  _2803
REMARK  830  A    between atoms: _2803  and  _2804
REMARK  831  A    between atoms: _2813  and  _2814
REMARK  832  A    between atoms: _2814  and  _2815
REMARK  833  A    between atoms: _2814  and  _2817
REMARK  834  A    between atoms: _2817  and  _2818
REMARK  835  A    between atoms: _2823  and  _2824
REMARK  836  A    between atoms: _2834  and  _2835
REMARK  837  A    between atoms: _2835  and  _2838
REMARK  838  A    between atoms: _2838  and  _2839
REMARK  839  A    between atoms: _2839  and  _2840
REMARK  840  A    between atoms: _2839  and  _2841
REMARK  841  A    between atoms: _2884  and  _2885
REMARK  842  A    between atoms: _2884  and  _2887
REMARK  843  A    between atoms: _2887  and  _2888
REMARK  844  A    between atoms: _2888  and  _2889
REMARK  845  A    between atoms: _2899  and  _2900
REMARK  846  A    between atoms: _2900  and  _2901
REMARK  847  A    between atoms: _2900  and  _2903
REMARK  848  A    between atoms: _2903  and  _2904
REMARK  849  A    between atoms: _2904  and  _2905
REMARK  850  A    between atoms: _2905  and  _2906
REMARK  851  A    between atoms: _2923  and  _2924
REMARK  852  A    between atoms: _2924  and  _2925
REMARK  853  A    between atoms: _2924  and  _2927
REMARK  854  A    between atoms: _2927  and  _2928
REMARK  855  A    between atoms: _2928  and  _2929
REMARK  856  A    between atoms: _2929  and  _2930
REMARK  857  A    between atoms: _2947  and  _2948
REMARK  858  A    between atoms: _2948  and  _2949
REMARK  859  A    between atoms: _2948  and  _2951
REMARK  860  A    between atoms: _2951  and  _2952
REMARK  861  A    between atoms: _2951  and  _2953
REMARK  862  A    between atoms: _2952  and  _2954
REMARK  863  A    between atoms: _2966  and  _2967
REMARK  864  A    between atoms: _2967  and  _2968
REMARK  865  A    between atoms: _2967  and  _2970
REMARK  866  A    between atoms: _2970  and  _2971
REMARK  867  A    between atoms: _2971  and  _2972
REMARK  868  A    between atoms: _2972  and  _2973
REMARK  869  A    between atoms: _2973  and  _2974
REMARK  870  A    between atoms: _2988  and  _2989
REMARK  871  A    between atoms: _2989  and  _2990
REMARK  872  A    between atoms: _2989  and  _2992
REMARK  873  A    between atoms: _2992  and  _2993
REMARK  874  A    between atoms: _2993  and  _2994
REMARK  875  A    between atoms: _3003  and  _3004
REMARK  876  A    between atoms: _3004  and  _3005
REMARK  877  A    between atoms: _3004  and  _3007
REMARK  878  A    between atoms: _3007  and  _3008
REMARK  879  A    between atoms: _3007  and  _3009
REMARK  880  A    between atoms: _3008  and  _3010
REMARK  881  A    between atoms: _3022  and  _3023
REMARK  882  A    between atoms: _3023  and  _3024
REMARK  883  A    between atoms: _3023  and  _3026
REMARK  884  A    between atoms: _3026  and  _3027
REMARK  885  A    between atoms: _3026  and  _3028
REMARK  886  A    between atoms: _3038  and  _3039
REMARK  887  A    between atoms: _3039  and  _3040
REMARK  888  A    between atoms: _3039  and  _3042
REMARK  889  A    between atoms: _3042  and  _3043
REMARK  890  A    between atoms: _3043  and  _3044
REMARK  891  A    between atoms: _3044  and  _3045
REMARK  892  A    between atoms: _3045  and  _3046
REMARK  893  A    between atoms: _3060  and  _3061
REMARK  894  A    between atoms: _3061  and  _3062
REMARK  895  A    between atoms: _3061  and  _3064
REMARK  896  A    between atoms: _3064  and  _3065
REMARK  897  A    between atoms: _3065  and  _3066
REMARK  898  A    between atoms: _3066  and  _3067
REMARK  899  A    between atoms: _3067  and  _3068
REMARK  900  A    between atoms: _3082  and  _3083
REMARK  901  A    between atoms: _3083  and  _3084
REMARK  902  A    between atoms: _3083  and  _3086
REMARK  903  A    between atoms: _3086  and  _3087
REMARK  904  A    between atoms: _3099  and  _3100
REMARK  905  A    between atoms: _3100  and  _3101
REMARK  906  A    between atoms: _3100  and  _3103
REMARK  907  A    between atoms: _3103  and  _3104
REMARK  908  A    between atoms: _3110  and  _3111
REMARK  909  A    between atoms: _3111  and  _3112
REMARK  910  A    between atoms: _3111  and  _3114
REMARK  911  A    between atoms: _3114  and  _3115
REMARK  912  A    between atoms: _3115  and  _3116
REMARK  913  A    between atoms: _3127  and  _3128
REMARK  914  A    between atoms: _3128  and  _3129
REMARK  915  A    between atoms: _3128  and  _3131
REMARK  916  A    between atoms: _3131  and  _3132
REMARK  917  A    between atoms: _3147  and  _3148
REMARK  918  A    between atoms: _3148  and  _3149
REMARK  919  A    between atoms: _3148  and  _3151
REMARK  920  A    between atoms: _3151  and  _3152
REMARK  921  A    between atoms: _3151  and  _3153
REMARK  922  A    between atoms: _3152  and  _3154
REMARK  923  A    between atoms: _3166  and  _3167
REMARK  924  A    between atoms: _3167  and  _3168
REMARK  925  A    between atoms: _3173  and  _3174
REMARK  926  A    between atoms: _3174  and  _3175
REMARK  927  A    between atoms: _3174  and  _3177
REMARK  928  A    between atoms: _3177  and  _3178
REMARK  929  A    between atoms: _3183  and  _3184
REMARK  930  A    between atoms: _3195  and  _3196
REMARK  931  A    between atoms: _3208  and  _3209
REMARK  932  A    between atoms: _3209  and  _3210
REMARK  933  A    between atoms: _3209  and  _3212
REMARK  934  A    between atoms: _3212  and  _3213
REMARK  935  A    between atoms: _3212  and  _3214
REMARK  936  A    between atoms: _3213  and  _3215
REMARK  937  A    between atoms: _3227  and  _3228
REMARK  938  A    between atoms: _3228  and  _3229
REMARK  939  A    between atoms: _3228  and  _3231
REMARK  940  A    between atoms: _3231  and  _3232
REMARK  941  A    between atoms: _3231  and  _3233
REMARK  942  A    between atoms: _3241  and  _3242
REMARK  943  A    between atoms: _3242  and  _3243
REMARK  944  A    between atoms: _3242  and  _3245
REMARK  945  A    between atoms: _3245  and  _3246
REMARK  946  A    between atoms: _3246  and  _3247
REMARK  947  A    between atoms: _3246  and  _3248
REMARK  948  A    between atoms: _3260  and  _3261
REMARK  949  A    between atoms: _3261  and  _3262
REMARK  950  A    between atoms: _3261  and  _3264
REMARK  951  A    between atoms: _3264  and  _3265
REMARK  952  A    between atoms: _3280  and  _3281
REMARK  953  A    between atoms: _3281  and  _3282
REMARK  954  A    between atoms: _3281  and  _3284
REMARK  955  A    between atoms: _3284  and  _3285
REMARK  956  A    between atoms: _3284  and  _3286
REMARK  957  A    between atoms: _3296  and  _3297
REMARK  958  A    between atoms: _3297  and  _3298
REMARK  959  A    between atoms: _3297  and  _3300
REMARK  960  A    between atoms: _3300  and  _3301
REMARK  961  A    between atoms: _3301  and  _3302
REMARK                            x       y       z     vdW  Elec       q    Type
REMARK                         _______ _______ _______ _____ _____    ______ ____
ROOT
ATOM      1  H   UNK     1       7.318  39.626  43.289  0.00  0.00    +0.000 HD
ENDROOT
TORSDOF 0
REMARK  Name = /Users/mlugowska/PhD/ML_residence_time_prediction/protein_files/5J20_protein.pdb
REMARK  961 active torsions:
REMARK  status: ('A' for Active; 'I' for Inactive)
REMARK    1  A    between atoms: _2  and  _3
REMARK    2  A    between atoms: _2  and  _5
REMARK    3  A    between atoms: _10  and  _11
REMARK    4  A    between atoms: _11  and  _12
REMARK    5  A    between atoms: _11  and  _14
REMARK    6  A    between atoms: _14  and  _15
REMARK    7  A    between atoms: _14  and  _16
REMARK    8  A    between atoms: _26  and  _27
REMARK    9  A    between atoms: _27  and  _28
REMARK   10  A    between atoms: _27  and  _30
REMARK   11  A    between atoms: _30  and  _31
REMARK   12  A    between atoms: _31  and  _32
REMARK   13  A    between atoms: _41  and  _42
REMARK   14  A    between atoms: _42  and  _43
REMARK   15  A    between atoms: _42  and  _45
REMARK   16  A    between atoms: _45  and  _46
REMARK   17  A    between atoms: _45  and  _47
REMARK   18  A    between atoms: _55  and  _56
REMARK   19  A    between atoms: _56  and  _57
REMARK   20  A    between atoms: _56  and  _59
REMARK   21  A    between atoms: _59  and  _60
REMARK   22  A    between atoms: _75  and  _76
REMARK   23  A    between atoms: _76  and  _77
REMARK   24  A    between atoms: _76  and  _79
REMARK   25  A    between atoms: _85  and  _86
REMARK   26  A    between atoms: _86  and  _87
REMARK   27  A    between atoms: _86  and  _89
REMARK   28  A    between atoms: _89  and  _90
REMARK   29  A    between atoms: _105  and  _106
REMARK   30  A    between atoms: _106  and  _107
REMARK   31  A    between atoms: _106  and  _109
REMARK   32  A    between atoms: _109  and  _110
REMARK   33  A    between atoms: _110  and  _111
REMARK   34  A    between atoms: _122  and  _123
REMARK   35  A    between atoms: _123  and  _124
REMARK   36  A    between atoms: _123  and  _126
REMARK   37  A    between atoms: _132  and  _133
REMARK   38  A    between atoms: _133  and  _134
REMARK   39  A    between atoms: _133  and  _136
REMARK   40  A    between atoms: _136  and  _137
REMARK   41  A    between atoms: _137  and  _138
REMARK   42  A    between atoms: _147  and  _148
REMARK   43  A    between atoms: _148  and  _149
REMARK   44  A    between atoms: _148  and  _151
REMARK   45  A    between atoms: _151  and  _152
REMARK   46  A    between atoms: _151  and  _153
REMARK   47  A    between atoms: _152  and  _154
REMARK   48  A    between atoms: _166  and  _167
REMARK   49  A    between atoms: _167  and  _168
REMARK   50  A    between atoms: _167  and  _170
REMARK   51  A    between atoms: _176  and  _177
REMARK   52  A    between atoms: _177  and  _178
REMARK   53  A    between atoms: _177  and  _180
REMARK   54  A    between atoms: _180  and  _181
REMARK   55  A    between atoms: _181  and  _182
REMARK   56  A    between atoms: _193  and  _194
REMARK   57  A    between atoms: _194  and  _195
REMARK   58  A    between atoms: _194  and  _197
REMARK   59  A    between atoms: _197  and  _198
REMARK   60  A    between atoms: _198  and  _199
REMARK   61  A    between atoms: _198  and  _200
REMARK   62  A    between atoms: _212  and  _213
REMARK   63  A    between atoms: _213  and  _214
REMARK   64  A    between atoms: _213  and  _216
REMARK   65  A    between atoms: _216  and  _217
REMARK   66  A    between atoms: _217  and  _218
REMARK   67  A    between atoms: _218  and  _219
REMARK   68  A    between atoms: _229  and  _230
REMARK   69  A    between atoms: _230  and  _231
REMARK   70  A    between atoms: _230  and  _233
REMARK   71  A    between atoms: _233  and  _234
REMARK   72  A    between atoms: _240  and  _241
REMARK   73  A    between atoms: _241  and  _242
REMARK   74  A    between atoms: _241  and  _244
REMARK   75  A    between atoms: _244  and  _245
REMARK   76  A    between atoms: _245  and  _246
REMARK   77  A    between atoms: _245  and  _247
REMARK   78  A    between atoms: _259  and  _260
REMARK   79  A    between atoms: _260  and  _261
REMARK   80  A    between atoms: _260  and  _263
REMARK   81  A    between atoms: _263  and  _264
REMARK   82  A    between atoms: _263  and  _265
REMARK   83  A    between atoms: _264  and  _266
REMARK   84  A    between atoms: _278  and  _279
REMARK   85  A    between atoms: _279  and  _280
REMARK   86  A    between atoms: _279  and  _282
REMARK   87  A    between atoms: _282  and  _283
REMARK   88  A    between atoms: _282  and  _284
REMARK   89  A    between atoms: _283  and  _285
REMARK   90  A    between atoms: _297  and  _298
REMARK   91  A    between atoms: _298  and  _299
REMARK   92  A    between atoms: _298  and  _301
REMARK   93  A    between atoms: _301  and  _302
REMARK   94  A    between atoms: _311  and  _312
REMARK   95  A    between atoms: _312  and  _313
REMARK   96  A    between atoms: _312  and  _315
REMARK   97  A    between atoms: _315  and  _316
REMARK   98  A    between atoms: _315  and  _317
REMARK   99  A    between atoms: _325  and  _326
REMARK  100  A    between atoms: _326  and  _327
REMARK  101  A    between atoms: _326  and  _329
REMARK  102  A    between atoms: _329  and  _330
REMARK  103  A    between atoms: _345  and  _346
REMARK  104  A    between atoms: _346  and  _347
REMARK  105  A    between atoms: _346  and  _349
REMARK  106  A    between atoms: _349  and  _350
REMARK  107  A    between atoms: _355  and  _356
REMARK  108  A    between atoms: _366  and  _367
REMARK  109  A    between atoms: _367  and  _368
REMARK  110  A    between atoms: _367  and  _370
REMARK  111  A    between atoms: _370  and  _371
REMARK  112  A    between atoms: _377  and  _378
REMARK  113  A    between atoms: _378  and  _379
REMARK  114  A    between atoms: _378  and  _381
REMARK  115  A    between atoms: _381  and  _382
REMARK  116  A    between atoms: _391  and  _392
REMARK  117  A    between atoms: _392  and  _393
REMARK  118  A    between atoms: _392  and  _395
REMARK  119  A    between atoms: _395  and  _396
REMARK  120  A    between atoms: _396  and  _397
REMARK  121  A    between atoms: _397  and  _398
REMARK  122  A    between atoms: _398  and  _399
REMARK  123  A    between atoms: _413  and  _414
REMARK  124  A    between atoms: _414  and  _415
REMARK  125  A    between atoms: _414  and  _417
REMARK  126  A    between atoms: _417  and  _418
REMARK  127  A    between atoms: _418  and  _419
REMARK  128  A    between atoms: _428  and  _429
REMARK  129  A    between atoms: _429  and  _430
REMARK  130  A    between atoms: _429  and  _432
REMARK  131  A    between atoms: _432  and  _433
REMARK  132  A    between atoms: _432  and  _434
REMARK  133  A    between atoms: _433  and  _435
REMARK  134  A    between atoms: _447  and  _448
REMARK  135  A    between atoms: _448  and  _449
REMARK  136  A    between atoms: _448  and  _451
REMARK  137  A    between atoms: _451  and  _452
REMARK  138  A    between atoms: _467  and  _468
REMARK  139  A    between atoms: _468  and  _469
REMARK  140  A    between atoms: _468  and  _471
REMARK  141  A    between atoms: _471  and  _472
REMARK  142  A    between atoms: _472  and  _473
REMARK  143  A    between atoms: _472  and  _474
REMARK  144  A    between atoms: _486  and  _487
REMARK  145  A    between atoms: _487  and  _488
REMARK  146  A    between atoms: _487  and  _490
REMARK  147  A    between atoms: _490  and  _491
REMARK  148  A    between atoms: _491  and  _492
REMARK  149  A    between atoms: _492  and  _493
REMARK  150  A    between atoms: _510  and  _511
REMARK  151  A    between atoms: _511  and  _512
REMARK  152  A    between atoms: _511  and  _514
REMARK  153  A    between atoms: _514  and  _515
REMARK  154  A    between atoms: _515  and  _516
REMARK  155  A    between atoms: _525  and  _526
REMARK  156  A    between atoms: _526  and  _527
REMARK  157  A    between atoms: _526  and  _529
REMARK  158  A    between atoms: _529  and  _530
REMARK  159  A    between atoms: _530  and  _531
REMARK  160  A    between atoms: _530  and  _532
REMARK  161  A    between atoms: _544  and  _545
REMARK  162  A    between atoms: _545  and  _546
REMARK  163  A    between atoms: _545  and  _548
REMARK  164  A    between atoms: _548  and  _549
REMARK  165  A    between atoms: _548  and  _550
REMARK  166  A    between atoms: _549  and  _551
REMARK  167  A    between atoms: _563  and  _564
REMARK  168  A    between atoms: _564  and  _565
REMARK  169  A    between atoms: _564  and  _567
REMARK  170  A    between atoms: _567  and  _568
REMARK  171  A    between atoms: _574  and  _575
REMARK  172  A    between atoms: _575  and  _576
REMARK  173  A    between atoms: _575  and  _578
REMARK  174  A    between atoms: _578  and  _579
REMARK  175  A    between atoms: _588  and  _589
REMARK  176  A    between atoms: _589  and  _590
REMARK  177  A    between atoms: _589  and  _592
REMARK  178  A    between atoms: _592  and  _593
REMARK  179  A    between atoms: _599  and  _600
REMARK  180  A    between atoms: _600  and  _601
REMARK  181  A    between atoms: _600  and  _603
REMARK  182  A    between atoms: _603  and  _604
REMARK  183  A    between atoms: _610  and  _611
REMARK  184  A    between atoms: _611  and  _612
REMARK  185  A    between atoms: _611  and  _614
REMARK  186  A    between atoms: _614  and  _615
REMARK  187  A    between atoms: _622  and  _623
REMARK  188  A    between atoms: _623  and  _624
REMARK  189  A    between atoms: _623  and  _626
REMARK  190  A    between atoms: _632  and  _633
REMARK  191  A    between atoms: _633  and  _634
REMARK  192  A    between atoms: _633  and  _636
REMARK  193  A    between atoms: _636  and  _637
REMARK  194  A    between atoms: _637  and  _638
REMARK  195  A    between atoms: _637  and  _639
REMARK  196  A    between atoms: _651  and  _652
REMARK  197  A    between atoms: _652  and  _653
REMARK  198  A    between atoms: _652  and  _655
REMARK  199  A    between atoms: _655  and  _656
REMARK  200  A    between atoms: _663  and  _664
REMARK  201  A    between atoms: _664  and  _665
REMARK  202  A    between atoms: _664  and  _667
REMARK  203  A    between atoms: _667  and  _668
REMARK  204  A    between atoms: _668  and  _669
REMARK  205  A    between atoms: _669  and  _670
REMARK  206  A    between atoms: _670  and  _671
REMARK  207  A    between atoms: _685  and  _686
REMARK  208  A    between atoms: _686  and  _687
REMARK  209  A    between atoms: _686  and  _689
REMARK  210  A    between atoms: _689  and  _690
REMARK  211  A    between atoms: _689  and  _691
REMARK  212  A    between atoms: _690  and  _692
REMARK  213  A    between atoms: _704  and  _705
REMARK  214  A    between atoms: _705  and  _706
REMARK  215  A    between atoms: _705  and  _708
REMARK  216  A    between atoms: _708  and  _709
REMARK  217  A    between atoms: _709  and  _710
REMARK  218  A    between atoms: _710  and  _711
REMARK  219  A    between atoms: _728  and  _729
REMARK  220  A    between atoms: _729  and  _730
REMARK  221  A    between atoms: _729  and  _732
REMARK  222  A    between atoms: _732  and  _733
REMARK  223  A    between atoms: _738  and  _739
REMARK  224  A    between atoms: _749  and  _750
REMARK  225  A    between atoms: _750  and  _751
REMARK  226  A    between atoms: _750  and  _753
REMARK  227  A    between atoms: _753  and  _754
REMARK  228  A    between atoms: _754  and  _755
REMARK  229  A    between atoms: _764  and  _765
REMARK  230  A    between atoms: _765  and  _766
REMARK  231  A    between atoms: _765  and  _768
REMARK  232  A    between atoms: _772  and  _773
REMARK  233  A    between atoms: _773  and  _774
REMARK  234  A    between atoms: _773  and  _776
REMARK  235  A    between atoms: _776  and  _777
REMARK  236  A    between atoms: _777  and  _778
REMARK  237  A    between atoms: _777  and  _779
REMARK  238  A    between atoms: _791  and  _792
REMARK  239  A    between atoms: _792  and  _793
REMARK  240  A    between atoms: _792  and  _795
REMARK  241  A    between atoms: _795  and  _796
REMARK  242  A    between atoms: _795  and  _797
REMARK  243  A    between atoms: _805  and  _806
REMARK  244  A    between atoms: _806  and  _807
REMARK  245  A    between atoms: _806  and  _809
REMARK  246  A    between atoms: _809  and  _810
REMARK  247  A    between atoms: _818  and  _819
REMARK  248  A    between atoms: _831  and  _832
REMARK  249  A    between atoms: _832  and  _833
REMARK  250  A    between atoms: _832  and  _835
REMARK  251  A    between atoms: _835  and  _836
REMARK  252  A    between atoms: _842  and  _843
REMARK  253  A    between atoms: _843  and  _844
REMARK  254  A    between atoms: _843  and  _846
REMARK  255  A    between atoms: _846  and  _847
REMARK  256  A    between atoms: _847  and  _848
REMARK  257  A    between atoms: _848  and  _849
REMARK  258  A    between atoms: _849  and  _850
REMARK  259  A    between atoms: _864  and  _865
REMARK  260  A    between atoms: _865  and  _866
REMARK  261  A    between atoms: _865  and  _868
REMARK  262  A    between atoms: _868  and  _869
REMARK  263  A    between atoms: _869  and  _870
REMARK  264  A    between atoms: _869  and  _871
REMARK  265  A    between atoms: _883  and  _884
REMARK  266  A    between atoms: _884  and  _885
REMARK  267  A    between atoms: _884  and  _887
REMARK  268  A    between atoms: _887  and  _888
REMARK  269  A    between atoms: _895  and  _896
REMARK  270  A    between atoms: _896  and  _897
REMARK  271  A    between atoms: _896  and  _899
REMARK  272  A    between atoms: _899  and  _900
REMARK  273  A    between atoms: _906  and  _907
REMARK  274  A    between atoms: _907  and  _908
REMARK  275  A    between atoms: _913  and  _914
REMARK  276  A    between atoms: _914  and  _915
REMARK  277  A    between atoms: _914  and  _917
REMARK  278  A    between atoms: _917  and  _918
REMARK  279  A    between atoms: _918  and  _919
REMARK  280  A    between atoms: _919  and  _920
REMARK  281  A    between atoms: _920  and  _921
REMARK  282  A    between atoms: _935  and  _936
REMARK  283  A    between atoms: _936  and  _937
REMARK  284  A    between atoms: _936  and  _939
REMARK  285  A    between atoms: _939  and  _940
REMARK  286  A    between atoms: _940  and  _941
REMARK  287  A    between atoms: _950  and  _951
REMARK  288  A    between atoms: _951  and  _952
REMARK  289  A    between atoms: _951  and  _954
REMARK  290  A    between atoms: _954  and  _955
REMARK  291  A    between atoms: _955  and  _956
REMARK  292  A    between atoms: _955  and  _957
REMARK  293  A    between atoms: _969  and  _970
REMARK  294  A    between atoms: _970  and  _971
REMARK  295  A    between atoms: _970  and  _973
REMARK  296  A    between atoms: _973  and  _974
REMARK  297  A    between atoms: _986  and  _987
REMARK  298  A    between atoms: _987  and  _988
REMARK  299  A    between atoms: _987  and  _990
REMARK  300  A    between atoms: _990  and  _991
REMARK  301  A    between atoms: _990  and  _992
REMARK  302  A    between atoms: _991  and  _993
REMARK  303  A    between atoms: _1005  and  _1006
REMARK  304  A    between atoms: _1006  and  _1007
REMARK  305  A    between atoms: _1006  and  _1009
REMARK  306  A    between atoms: _1009  and  _1010
REMARK  307  A    between atoms: _1019  and  _1020
REMARK  308  A    between atoms: _1020  and  _1021
REMARK  309  A    between atoms: _1020  and  _1023
REMARK  310  A    between atoms: _1023  and  _1024
REMARK  311  A    between atoms: _1024  and  _1025
REMARK  312  A    between atoms: _1024  and  _1026
REMARK  313  A    between atoms: _1038  and  _1039
REMARK  314  A    between atoms: _1039  and  _1040
REMARK  315  A    between atoms: _1039  and  _1042
REMARK  316  A    between atoms: _1042  and  _1043
REMARK  317  A    between atoms: _1042  and  _1044
REMARK  318  A    between atoms: _1043  and  _1045
REMARK  319  A    between atoms: _1058  and  _1059
REMARK  320  A    between atoms: _1071  and  _1072
REMARK  321  A    between atoms: _1072  and  _1073
REMARK  322  A    between atoms: _1072  and  _1075
REMARK  323  A    between atoms: _1075  and  _1076
REMARK  324  A    between atoms: _1085  and  _1086
REMARK  325  A    between atoms: _1086  and  _1087
REMARK  326  A    between atoms: _1086  and  _1089
REMARK  327  A    between atoms: _1089  and  _1090
REMARK  328  A    between atoms: _1090  and  _1091
REMARK  329  A    between atoms: _1091  and  _1092
REMARK  330  A    between atoms: _1092  and  _1093
REMARK  331  A    between atoms: _1107  and  _1108
REMARK  332  A    between atoms: _1108  and  _1109
REMARK  333  A    between atoms: _1108  and  _1111
REMARK  334  A    between atoms: _1111  and  _1112
REMARK  335  A    between atoms: _1112  and  _1113
REMARK  336  A    between atoms: _1124  and  _1125
REMARK  337  A    between atoms: _1125  and  _1126
REMARK  338  A    between atoms: _1125  and  _1128
REMARK  339  A    between atoms: _1128  and  _1129
REMARK  340  A    between atoms: _1136  and  _1137
REMARK  341  A    between atoms: _1137  and  _1138
REMARK  342  A    between atoms: _1137  and  _1140
REMARK  343  A    between atoms: _1140  and  _1141
REMARK  344  A    between atoms: _1141  and  _1142
REMARK  345  A    between atoms: _1142  and  _1143
REMARK  346  A    between atoms: _1160  and  _1161
REMARK  347  A    between atoms: _1161  and  _1162
REMARK  348  A    between atoms: _1161  and  _1164
REMARK  349  A    between atoms: _1164  and  _1165
REMARK  350  A    between atoms: _1164  and  _1166
REMARK  351  A    between atoms: _1174  and  _1175
REMARK  352  A    between atoms: _1175  and  _1176
REMARK  353  A    between atoms: _1175  and  _1178
REMARK  354  A    between atoms: _1178  and  _1179
REMARK  355  A    between atoms: _1179  and  _1180
REMARK  356  A    between atoms: _1179  and  _1181
REMARK  357  A    between atoms: _1193  and  _1194
REMARK  358  A    between atoms: _1194  and  _1195
REMARK  359  A    between atoms: _1194  and  _1197
REMARK  360  A    between atoms: _1197  and  _1198
REMARK  361  A    between atoms: _1197  and  _1199
REMARK  362  A    between atoms: _1207  and  _1208
REMARK  363  A    between atoms: _1208  and  _1209
REMARK  364  A    between atoms: _1208  and  _1211
REMARK  365  A    between atoms: _1211  and  _1212
REMARK  366  A    between atoms: _1211  and  _1213
REMARK  367  A    between atoms: _1212  and  _1214
REMARK  368  A    between atoms: _1226  and  _1227
REMARK  369  A    between atoms: _1227  and  _1228
REMARK  370  A    between atoms: _1227  and  _1230
REMARK  371  A    between atoms: _1230  and  _1231
REMARK  372  A    between atoms: _1230  and  _1232
REMARK  373  A    between atoms: _1242  and  _1243
REMARK  374  A    between atoms: _1243  and  _1244
REMARK  375  A    between atoms: _1243  and  _1246
REMARK  376  A    between atoms: _1246  and  _1247
REMARK  377  A    between atoms: _1254  and  _1255
REMARK  378  A    between atoms: _1255  and  _1256
REMARK  379  A    between atoms: _1255  and  _1258
REMARK  380  A    between atoms: _1258  and  _1259
REMARK  381  A    between atoms: _1258  and  _1260
REMARK  382  A    between atoms: _1268  and  _1269
REMARK  383  A    between atoms: _1269  and  _1270
REMARK  384  A    between atoms: _1275  and  _1276
REMARK  385  A    between atoms: _1276  and  _1277
REMARK  386  A    between atoms: _1276  and  _1279
REMARK  387  A    between atoms: _1279  and  _1280
REMARK  388  A    between atoms: _1279  and  _1281
REMARK  389  A    between atoms: _1280  and  _1282
REMARK  390  A    between atoms: _1294  and  _1295
REMARK  391  A    between atoms: _1295  and  _1296
REMARK  392  A    between atoms: _1301  and  _1302
REMARK  393  A    between atoms: _1302  and  _1303
REMARK  394  A    between atoms: _1302  and  _1305
REMARK  395  A    between atoms: _1305  and  _1306
REMARK  396  A    between atoms: _1306  and  _1307
REMARK  397  A    between atoms: _1307  and  _1308
REMARK  398  A    between atoms: _1318  and  _1319
REMARK  399  A    between atoms: _1319  and  _1320
REMARK  400  A    between atoms: _1319  and  _1322
REMARK  401  A    between atoms: _1322  and  _1323
REMARK  402  A    between atoms: _1322  and  _1324
REMARK  403  A    between atoms: _1332  and  _1333
REMARK  404  A    between atoms: _1333  and  _1334
REMARK  405  A    between atoms: _1333  and  _1336
REMARK  406  A    between atoms: _1336  and  _1337
REMARK  407  A    between atoms: _1337  and  _1338
REMARK  408  A    between atoms: _1338  and  _1339
REMARK  409  A    between atoms: _1339  and  _1340
REMARK  410  A    between atoms: _1354  and  _1355
REMARK  411  A    between atoms: _1355  and  _1356
REMARK  412  A    between atoms: _1355  and  _1358
REMARK  413  A    between atoms: _1364  and  _1365
REMARK  414  A    between atoms: _1365  and  _1366
REMARK  415  A    between atoms: _1365  and  _1368
REMARK  416  A    between atoms: _1368  and  _1369
REMARK  417  A    between atoms: _1376  and  _1377
REMARK  418  A    between atoms: _1377  and  _1378
REMARK  419  A    between atoms: _1377  and  _1380
REMARK  420  A    between atoms: _1380  and  _1381
REMARK  421  A    between atoms: _1381  and  _1382
REMARK  422  A    between atoms: _1381  and  _1383
REMARK  423  A    between atoms: _1395  and  _1396
REMARK  424  A    between atoms: _1396  and  _1399
REMARK  425  A    between atoms: _1399  and  _1400
REMARK  426  A    between atoms: _1399  and  _1401
REMARK  427  A    between atoms: _1400  and  _1402
REMARK  428  A    between atoms: _1422  and  _1425
REMARK  429  A    between atoms: _1424  and  _1428
REMARK  430  A    between atoms: _1425  and  _1427
REMARK  431  A    between atoms: _1443  and  _1444
REMARK  432  A    between atoms: _1443  and  _1446
REMARK  433  A    between atoms: _1446  and  _1447
REMARK  434  A    between atoms: _1457  and  _1458
REMARK  435  A    between atoms: _1458  and  _1459
REMARK  436  A    between atoms: _1458  and  _1461
REMARK  437  A    between atoms: _1461  and  _1462
REMARK  438  A    between atoms: _1462  and  _1463
REMARK  439  A    between atoms: _1462  and  _1464
REMARK  440  A    between atoms: _1476  and  _1477
REMARK  441  A    between atoms: _1477  and  _1478
REMARK  442  A    between atoms: _1483  and  _1484
REMARK  443  A    between atoms: _1484  and  _1485
REMARK  444  A    between atoms: _1484  and  _1487
REMARK  445  A    between atoms: _1487  and  _1488
REMARK  446  A    between atoms: _1487  and  _1489
REMARK  447  A    between atoms: _1497  and  _1498
REMARK  448  A    between atoms: _1498  and  _1499
REMARK  449  A    between atoms: _1498  and  _1501
REMARK  450  A    between atoms: _1501  and  _1502
REMARK  451  A    between atoms: _1501  and  _1503
REMARK  452  A    between atoms: _1502  and  _1504
REMARK  453  A    between atoms: _1516  and  _1517
REMARK  454  A    between atoms: _1517  and  _1518
REMARK  455  A    between atoms: _1517  and  _1520
REMARK  456  A    between atoms: _1526  and  _1527
REMARK  457  A    between atoms: _1527  and  _1528
REMARK  458  A    between atoms: _1527  and  _1530
REMARK  459  A    between atoms: _1530  and  _1531
REMARK  460  A    between atoms: _1531  and  _1532
REMARK  461  A    between atoms: _1532  and  _1533
REMARK  462  A    between atoms: _1533  and  _1534
REMARK  463  A    between atoms: _1548  and  _1549
REMARK  464  A    between atoms: _1549  and  _1550
REMARK  465  A    between atoms: _1549  and  _1552
REMARK  466  A    between atoms: _1552  and  _1553
REMARK  467  A    between atoms: _1559  and  _1560
REMARK  468  A    between atoms: _1560  and  _1561
REMARK  469  A    between atoms: _1566  and  _1567
REMARK  470  A    between atoms: _1567  and  _1568
REMARK  471  A    between atoms: _1567  and  _1570
REMARK  472  A    between atoms: _1570  and  _1571
REMARK  473  A    between atoms: _1570  and  _1572
REMARK  474  A    between atoms: _1580  and  _1581
REMARK  475  A    between atoms: _1581  and  _1582
REMARK  476  A    between atoms: _1581  and  _1584
REMARK  477  A    between atoms: _1584  and  _1585
REMARK  478  A    between atoms: _1585  and  _1586
REMARK  479  A    between atoms: _1586  and  _1587
REMARK  480  A    between atoms: _1587  and  _1588
REMARK  481  A    between atoms: _1602  and  _1603
REMARK  482  A    between atoms: _1603  and  _1604
REMARK  483  A    between atoms: _1603  and  _1606
REMARK  484  A    between atoms: _1612  and  _1613
REMARK  485  A    between atoms: _1613  and  _1614
REMARK  486  A    between atoms: _1613  and  _1616
REMARK  487  A    between atoms: _1616  and  _1617
REMARK  488  A    between atoms: _1632  and  _1633
REMARK  489  A    between atoms: _1633  and  _1634
REMARK  490  A    between atoms: _1633  and  _1636
REMARK  491  A    between atoms: _1636  and  _1637
REMARK  492  A    between atoms: _1637  and  _1638
REMARK  493  A    between atoms: _1638  and  _1639
REMARK  494  A    between atoms: _1649  and  _1650
REMARK  495  A    between atoms: _1650  and  _1651
REMARK  496  A    between atoms: _1650  and  _1653
REMARK  497  A    between atoms: _1653  and  _1654
REMARK  498  A    between atoms: _1654  and  _1655
REMARK  499  A    between atoms: _1664  and  _1665
REMARK  500  A    between atoms: _1665  and  _1666
REMARK  501  A    between atoms: _1665  and  _1668
REMARK  502  A    between atoms: _1674  and  _1675
REMARK  503  A    between atoms: _1675  and  _1676
REMARK  504  A    between atoms: _1675  and  _1678
REMARK  505  A    between atoms: _1678  and  _1679
REMARK  506  A    between atoms: _1679  and  _1680
REMARK  507  A    between atoms: _1679  and  _1681
REMARK  508  A    between atoms: _1693  and  _1694
REMARK  509  A    between atoms: _1694  and  _1695
REMARK  510  A    between atoms: _1694  and  _1697
REMARK  511  A    between atoms: _1697  and  _1698
REMARK  512  A    between atoms: _1698  and  _1699
REMARK  513  A    between atoms: _1710  and  _1711
REMARK  514  A    between atoms: _1711  and  _1712
REMARK  515  A    between atoms: _1711  and  _1714
REMARK  516  A    between atoms: _1720  and  _1721
REMARK  517  A    between atoms: _1721  and  _1722
REMARK  518  A    between atoms: _1727  and  _1728
REMARK  519  A    between atoms: _1728  and  _1729
REMARK  520  A    between atoms: _1728  and  _1731
REMARK  521  A    between atoms: _1737  and  _1738
REMARK  522  A    between atoms: _1738  and  _1739
REMARK  523  A    between atoms: _1738  and  _1741
REMARK  524  A    between atoms: _1741  and  _1742
REMARK  525  A    between atoms: _1749  and  _1750
REMARK  526  A    between atoms: _1750  and  _1751
REMARK  527  A    between atoms: _1750  and  _1753
REMARK  528  A    between atoms: _1753  and  _1754
REMARK  529  A    between atoms: _1753  and  _1755
REMARK  530  A    between atoms: _1754  and  _1756
REMARK  531  A    between atoms: _1768  and  _1769
REMARK  532  A    between atoms: _1769  and  _1772
REMARK  533  A    between atoms: _1772  and  _1773
REMARK  534  A    between atoms: _1791  and  _1793
REMARK  535  A    between atoms: _1792  and  _1794
REMARK  536  A    between atoms: _1814  and  _1815
REMARK  537  A    between atoms: _1814  and  _1817
REMARK  538  A    between atoms: _1817  and  _1818
REMARK  539  A    between atoms: _1817  and  _1819
REMARK  540  A    between atoms: _1818  and  _1820
REMARK  541  A    between atoms: _1833  and  _1834
REMARK  542  A    between atoms: _1834  and  _1835
REMARK  543  A    between atoms: _1840  and  _1841
REMARK  544  A    between atoms: _1841  and  _1842
REMARK  545  A    between atoms: _1841  and  _1844
REMARK  546  A    between atoms: _1844  and  _1845
REMARK  547  A    between atoms: _1845  and  _1846
REMARK  548  A    between atoms: _1857  and  _1858
REMARK  549  A    between atoms: _1858  and  _1859
REMARK  550  A    between atoms: _1858  and  _1861
REMARK  551  A    between atoms: _1861  and  _1862
REMARK  552  A    between atoms: _1877  and  _1878
REMARK  553  A    between atoms: _1878  and  _1879
REMARK  554  A    between atoms: _1884  and  _1885
REMARK  555  A    between atoms: _1885  and  _1886
REMARK  556  A    between atoms: _1885  and  _1888
REMARK  557  A    between atoms: _1888  and  _1889
REMARK  558  A    between atoms: _1888  and  _1890
REMARK  559  A    between atoms: _1900  and  _1901
REMARK  560  A    between atoms: _1901  and  _1902
REMARK  561  A    between atoms: _1907  and  _1908
REMARK  562  A    between atoms: _1908  and  _1909
REMARK  563  A    between atoms: _1908  and  _1911
REMARK  564  A    between atoms: _1911  and  _1912
REMARK  565  A    between atoms: _1927  and  _1928
REMARK  566  A    between atoms: _1928  and  _1929
REMARK  567  A    between atoms: _1928  and  _1931
REMARK  568  A    between atoms: _1931  and  _1932
REMARK  569  A    between atoms: _1937  and  _1938
REMARK  570  A    between atoms: _1948  and  _1949
REMARK  571  A    between atoms: _1949  and  _1950
REMARK  572  A    between atoms: _1949  and  _1952
REMARK  573  A    between atoms: _1952  and  _1953
REMARK  574  A    between atoms: _1959  and  _1960
REMARK  575  A    between atoms: _1960  and  _1961
REMARK  576  A    between atoms: _1960  and  _1963
REMARK  577  A    between atoms: _1969  and  _1970
REMARK  578  A    between atoms: _1970  and  _1971
REMARK  579  A    between atoms: _1970  and  _1973
REMARK  580  A    between atoms: _1973  and  _1974
REMARK  581  A    between atoms: _1979  and  _1980
REMARK  582  A    between atoms: _1990  and  _1991
REMARK  583  A    between atoms: _1991  and  _1992
REMARK  584  A    between atoms: _1991  and  _1994
REMARK  585  A    between atoms: _1994  and  _1995
REMARK  586  A    between atoms: _1995  and  _1996
REMARK  587  A    between atoms: _1995  and  _1997
REMARK  588  A    between atoms: _2009  and  _2010
REMARK  589  A    between atoms: _2010  and  _2011
REMARK  590  A    between atoms: _2010  and  _2013
REMARK  591  A    between atoms: _2013  and  _2014
REMARK  592  A    between atoms: _2013  and  _2015
REMARK  593  A    between atoms: _2025  and  _2026
REMARK  594  A    between atoms: _2026  and  _2027
REMARK  595  A    between atoms: _2026  and  _2029
REMARK  596  A    between atoms: _2035  and  _2036
REMARK  597  A    between atoms: _2036  and  _2037
REMARK  598  A    between atoms: _2036  and  _2039
REMARK  599  A    between atoms: _2039  and  _2040
REMARK  600  A    between atoms: _2040  and  _2041
REMARK  601  A    between atoms: _2050  and  _2051
REMARK  602  A    between atoms: _2051  and  _2052
REMARK  603  A    between atoms: _2051  and  _2054
REMARK  604  A    between atoms: _2054  and  _2055
REMARK  605  A    between atoms: _2055  and  _2056
REMARK  606  A    between atoms: _2056  and  _2057
REMARK  607  A    between atoms: _2057  and  _2058
REMARK  608  A    between atoms: _2072  and  _2073
REMARK  609  A    between atoms: _2073  and  _2074
REMARK  610  A    between atoms: _2073  and  _2076
REMARK  611  A    between atoms: _2076  and  _2077
REMARK  612  A    between atoms: _2076  and  _2078
REMARK  613  A    between atoms: _2088  and  _2089
REMARK  614  A    between atoms: _2089  and  _2090
REMARK  615  A    between atoms: _2089  and  _2092
REMARK  616  A    between atoms: _2092  and  _2093
REMARK  617  A    between atoms: _2092  and  _2094
REMARK  618  A    between atoms: _2102  and  _2103
REMARK  619  A    between atoms: _2103  and  _2104
REMARK  620  A    between atoms: _2103  and  _2106
REMARK  621  A    between atoms: _2106  and  _2107
REMARK  622  A    between atoms: _2106  and  _2108
REMARK  623  A    between atoms: _2118  and  _2119
REMARK  624  A    between atoms: _2119  and  _2120
REMARK  625  A    between atoms: _2119  and  _2122
REMARK  626  A    between atoms: _2122  and  _2123
REMARK  627  A    between atoms: _2122  and  _2124
REMARK  628  A    between atoms: _2123  and  _2125
REMARK  629  A    between atoms: _2137  and  _2138
REMARK  630  A    between atoms: _2138  and  _2139
REMARK  631  A    between atoms: _2138  and  _2141
REMARK  632  A    between atoms: _2141  and  _2142
REMARK  633  A    between atoms: _2141  and  _2143
REMARK  634  A    between atoms: _2151  and  _2152
REMARK  635  A    between atoms: _2152  and  _2153
REMARK  636  A    between atoms: _2152  and  _2155
REMARK  637  A    between atoms: _2155  and  _2156
REMARK  638  A    between atoms: _2156  and  _2157
REMARK  639  A    between atoms: _2157  and  _2158
REMARK  640  A    between atoms: _2158  and  _2159
REMARK  641  A    between atoms: _2173  and  _2174
REMARK  642  A    between atoms: _2174  and  _2175
REMARK  643  A    between atoms: _2174  and  _2177
REMARK  644  A    between atoms: _2177  and  _2178
REMARK  645  A    between atoms: _2190  and  _2191
REMARK  646  A    between atoms: _2191  and  _2192
REMARK  647  A    between atoms: _2191  and  _2194
REMARK  648  A    between atoms: _2194  and  _2195
REMARK  649  A    between atoms: _2204  and  _2205
REMARK  650  A    between atoms: _2205  and  _2206
REMARK  651  A    between atoms: _2205  and  _2208
REMARK  652  A    between atoms: _2208  and  _2209
REMARK  653  A    between atoms: _2216  and  _2217
REMARK  654  A    between atoms: _2217  and  _2218
REMARK  655  A    between atoms: _2217  and  _2220
REMARK  656  A    between atoms: _2220  and  _2221
REMARK  657  A    between atoms: _2228  and  _2229
REMARK  658  A    between atoms: _2229  and  _2230
REMARK  659  A    between atoms: _2229  and  _2232
REMARK  660  A    between atoms: _2232  and  _2233
REMARK  661  A    between atoms: _2233  and  _2234
REMARK  662  A    between atoms: _2243  and  _2244
REMARK  663  A    between atoms: _2244  and  _2245
REMARK  664  A    between atoms: _2244  and  _2247
REMARK  665  A    between atoms: _2247  and  _2248
REMARK  666  A    between atoms: _2248  and  _2249
REMARK  667  A    between atoms: _2260  and  _2261
REMARK  668  A    between atoms: _2261  and  _2262
REMARK  669  A    between atoms: _2261  and  _2264
REMARK  670  A    between atoms: _2264  and  _2265
REMARK  671  A    between atoms: _2270  and  _2271
REMARK  672  A    between atoms: _2281  and  _2282
REMARK  673  A    between atoms: _2282  and  _2283
REMARK  674  A    between atoms: _2282  and  _2285
REMARK  675  A    between atoms: _2291  and  _2292
REMARK  676  A    between atoms: _2292  and  _2293
REMARK  677  A    between atoms: _2292  and  _2295
REMARK  678  A    between atoms: _2295  and  _2296
REMARK  679  A    between atoms: _2315  and  _2316
REMARK  680  A    between atoms: _2316  and  _2317
REMARK  681  A    between atoms: _2316  and  _2319
REMARK  682  A    between atoms: _2319  and  _2320
REMARK  683  A    between atoms: _2320  and  _2321
REMARK  684  A    between atoms: _2330  and  _2331
REMARK  685  A    between atoms: _2331  and  _2332
REMARK  686  A    between atoms: _2331  and  _2334
REMARK  687  A    between atoms: _2334  and  _2335
REMARK  688  A    between atoms: _2341  and  _2342
REMARK  689  A    between atoms: _2342  and  _2343
REMARK  690  A    between atoms: _2342  and  _2345
REMARK  691  A    between atoms: _2345  and  _2346
REMARK  692  A    between atoms: _2352  and  _2353
REMARK  693  A    between atoms: _2353  and  _2354
REMARK  694  A    between atoms: _2353  and  _2356
REMARK  695  A    between atoms: _2362  and  _2363
REMARK  696  A    between atoms: _2363  and  _2364
REMARK  697  A    between atoms: _2369  and  _2370
REMARK  698  A    between atoms: _2370  and  _2371
REMARK  699  A    between atoms: _2376  and  _2377
REMARK  700  A    between atoms: _2377  and  _2378
REMARK  701  A    between atoms: _2377  and  _2380
REMARK  702  A    between atoms: _2380  and  _2381
REMARK  703  A    between atoms: _2387  and  _2388
REMARK  704  A    between atoms: _2388  and  _2389
REMARK  705  A    between atoms: _2388  and  _2391
REMARK  706  A    between atoms: _2391  and  _2392
REMARK  707  A    between atoms: _2407  and  _2408
REMARK  708  A    between atoms: _2408  and  _2409
REMARK  709  A    between atoms: _2408  and  _2411
REMARK  710  A    between atoms: _2411  and  _2412
REMARK  711  A    between atoms: _2411  and  _2413
REMARK  712  A    between atoms: _2421  and  _2422
REMARK  713  A    between atoms: _2422  and  _2423
REMARK  714  A    between atoms: _2422  and  _2425
REMARK  715  A    between atoms: _2425  and  _2426
REMARK  716  A    between atoms: _2425  and  _2427
REMARK  717  A    between atoms: _2437  and  _2438
REMARK  718  A    between atoms: _2438  and  _2439
REMARK  719  A    between atoms: _2438  and  _2441
REMARK  720  A    between atoms: _2441  and  _2442
REMARK  721  A    between atoms: _2442  and  _2443
REMARK  722  A    between atoms: _2443  and  _2444
REMARK  723  A    between atoms: _2461  and  _2462
REMARK  724  A    between atoms: _2462  and  _2463
REMARK  725  A    between atoms: _2462  and  _2465
REMARK  726  A    between atoms: _2465  and  _2466
REMARK  727  A    between atoms: _2465  and  _2467
REMARK  728  A    between atoms: _2475  and  _2476
REMARK  729  A    between atoms: _2476  and  _2477
REMARK  730  A    between atoms: _2476  and  _2479
REMARK  731  A    between atoms: _2479  and  _2480
REMARK  732  A    between atoms: _2487  and  _2488
REMARK  733  A    between atoms: _2488  and  _2489
REMARK  734  A    between atoms: _2488  and  _2491
REMARK  735  A    between atoms: _2491  and  _2492
REMARK  736  A    between atoms: _2491  and  _2493
REMARK  737  A    between atoms: _2501  and  _2502
REMARK  738  A    between atoms: _2502  and  _2503
REMARK  739  A    between atoms: _2508  and  _2509
REMARK  740  A    between atoms: _2509  and  _2510
REMARK  741  A    between atoms: _2509  and  _2512
REMARK  742  A    between atoms: _2512  and  _2513
REMARK  743  A    between atoms: _2513  and  _2514
REMARK  744  A    between atoms: _2524  and  _2525
REMARK  745  A    between atoms: _2537  and  _2538
REMARK  746  A    between atoms: _2538  and  _2539
REMARK  747  A    between atoms: _2538  and  _2541
REMARK  748  A    between atoms: _2541  and  _2542
REMARK  749  A    between atoms: _2542  and  _2543
REMARK  750  A    between atoms: _2543  and  _2544
REMARK  751  A    between atoms: _2554  and  _2555
REMARK  752  A    between atoms: _2555  and  _2556
REMARK  753  A    between atoms: _2561  and  _2562
REMARK  754  A    between atoms: _2562  and  _2563
REMARK  755  A    between atoms: _2562  and  _2565
REMARK  756  A    between atoms: _2565  and  _2566
REMARK  757  A    between atoms: _2566  and  _2567
REMARK  758  A    between atoms: _2567  and  _2568
REMARK  759  A    between atoms: _2585  and  _2586
REMARK  760  A    between atoms: _2586  and  _2587
REMARK  761  A    between atoms: _2592  and  _2593
REMARK  762  A    between atoms: _2593  and  _2594
REMARK  763  A    between atoms: _2593  and  _2596
REMARK  764  A    between atoms: _2596  and  _2597
REMARK  765  A    between atoms: _2596  and  _2598
REMARK  766  A    between atoms: _2606  and  _2607
REMARK  767  A    between atoms: _2607  and  _2608
REMARK  768  A    between atoms: _2607  and  _2610
REMARK  769  A    between atoms: _2610  and  _2611
REMARK  770  A    between atoms: _2611  and  _2612
REMARK  771  A    between atoms: _2612  and  _2613
REMARK  772  A    between atoms: _2613  and  _2614
REMARK  773  A    between atoms: _2628  and  _2629
REMARK  774  A    between atoms: _2629  and  _2630
REMARK  775  A    between atoms: _2629  and  _2632
REMARK  776  A    between atoms: _2632  and  _2633
REMARK  777  A    between atoms: _2632  and  _2634
REMARK  778  A    between atoms: _2644  and  _2645
REMARK  779  A    between atoms: _2645  and  _2646
REMARK  780  A    between atoms: _2645  and  _2648
REMARK  781  A    between atoms: _2648  and  _2649
REMARK  782  A    between atoms: _2648  and  _2650
REMARK  783  A    between atoms: _2649  and  _2651
REMARK  784  A    between atoms: _2663  and  _2664
REMARK  785  A    between atoms: _2664  and  _2665
REMARK  786  A    between atoms: _2664  and  _2667
REMARK  787  A    between atoms: _2667  and  _2668
REMARK  788  A    between atoms: _2668  and  _2669
REMARK  789  A    between atoms: _2668  and  _2670
REMARK  790  A    between atoms: _2682  and  _2683
REMARK  791  A    between atoms: _2683  and  _2684
REMARK  792  A    between atoms: _2683  and  _2686
REMARK  793  A    between atoms: _2686  and  _2687
REMARK  794  A    between atoms: _2699  and  _2700
REMARK  795  A    between atoms: _2700  and  _2701
REMARK  796  A    between atoms: _2700  and  _2703
REMARK  797  A    between atoms: _2703  and  _2704
REMARK  798  A    between atoms: _2704  and  _2705
REMARK  799  A    between atoms: _2704  and  _2706
REMARK  800  A    between atoms: _2718  and  _2719
REMARK  801  A    between atoms: _2719  and  _2720
REMARK  802  A    between atoms: _2719  and  _2722
REMARK  803  A    between atoms: _2722  and  _2723
REMARK  804  A    between atoms: _2723  and  _2724
REMARK  805  A    between atoms: _2724  and  _2725
REMARK  806  A    between atoms: _2725  and  _2726
REMARK  807  A    between atoms: _2740  and  _2741
REMARK  808  A    between atoms: _2741  and  _2742
REMARK  809  A    between atoms: _2741  and  _2744
REMARK  810  A    between atoms: _2744  and  _2745
REMARK  811  A    between atoms: _2745  and  _2746
REMARK  812  A    between atoms: _2755  and  _2756
REMARK  813  A    between atoms: _2756  and  _2757
REMARK  814  A    between atoms: _2756  and  _2759
REMARK  815  A    between atoms: _2759  and  _2760
REMARK  816  A    between atoms: _2767  and  _2768
REMARK  817  A    between atoms: _2768  and  _2769
REMARK  818  A    between atoms: _2768  and  _2771
REMARK  819  A    between atoms: _2771  and  _2772
REMARK  820  A    between atoms: _2772  and  _2773
REMARK  821  A    between atoms: _2784  and  _2785
REMARK  822  A    between atoms: _2785  and  _2786
REMARK  823  A    between atoms: _2785  and  _2788
REMARK  824  A    between atoms: _2788  and  _2789
REMARK  825  A    between atoms: _2788  and  _2790
REMARK  826  A    between atoms: _2798  and  _2799
REMARK  827  A    between atoms: _2799  and  _2800
REMARK  828  A    between atoms: _2799  and  _2802
REMARK  829  A    between atoms: _2802  and  _2803
REMARK  830  A    between atoms: _2803  and  _2804
REMARK  831  A    between atoms: _2813  and  _2814
REMARK  832  A    between atoms: _2814  and  _2815
REMARK  833  A    between atoms: _2814  and  _2817
REMARK  834  A    between atoms: _2817  and  _2818
REMARK  835  A    between atoms: _2823  and  _2824
REMARK  836  A    between atoms: _2834  and  _2835
REMARK  837  A    between atoms: _2835  and  _2838
REMARK  838  A    between atoms: _2838  and  _2839
REMARK  839  A    between atoms: _2839  and  _2840
REMARK  840  A    between atoms: _2839  and  _2841
REMARK  841  A    between atoms: _2884  and  _2885
REMARK  842  A    between atoms: _2884  and  _2887
REMARK  843  A    between atoms: _2887  and  _2888
REMARK  844  A    between atoms: _2888  and  _2889
REMARK  845  A    between atoms: _2899  and  _2900
REMARK  846  A    between atoms: _2900  and  _2901
REMARK  847  A    between atoms: _2900  and  _2903
REMARK  848  A    between atoms: _2903  and  _2904
REMARK  849  A    between atoms: _2904  and  _2905
REMARK  850  A    between atoms: _2905  and  _2906
REMARK  851  A    between atoms: _2923  and  _2924
REMARK  852  A    between atoms: _2924  and  _2925
REMARK  853  A    between atoms: _2924  and  _2927
REMARK  854  A    between atoms: _2927  and  _2928
REMARK  855  A    between atoms: _2928  and  _2929
REMARK  856  A    between atoms: _2929  and  _2930
REMARK  857  A    between atoms: _2947  and  _2948
REMARK  858  A    between atoms: _2948  and  _2949
REMARK  859  A    between atoms: _2948  and  _2951
REMARK  860  A    between atoms: _2951  and  _2952
REMARK  861  A    between atoms: _2951  and  _2953
REMARK  862  A    between atoms: _2952  and  _2954
REMARK  863  A    between atoms: _2966  and  _2967
REMARK  864  A    between atoms: _2967  and  _2968
REMARK  865  A    between atoms: _2967  and  _2970
REMARK  866  A    between atoms: _2970  and  _2971
REMARK  867  A    between atoms: _2971  and  _2972
REMARK  868  A    between atoms: _2972  and  _2973
REMARK  869  A    between atoms: _2973  and  _2974
REMARK  870  A    between atoms: _2988  and  _2989
REMARK  871  A    between atoms: _2989  and  _2990
REMARK  872  A    between atoms: _2989  and  _2992
REMARK  873  A    between atoms: _2992  and  _2993
REMARK  874  A    between atoms: _2993  and  _2994
REMARK  875  A    between atoms: _3003  and  _3004
REMARK  876  A    between atoms: _3004  and  _3005
REMARK  877  A    between atoms: _3004  and  _3007
REMARK  878  A    between atoms: _3007  and  _3008
REMARK  879  A    between atoms: _3007  and  _3009
REMARK  880  A    between atoms: _3008  and  _3010
REMARK  881  A    between atoms: _3022  and  _3023
REMARK  882  A    between atoms: _3023  and  _3024
REMARK  883  A    between atoms: _3023  and  _3026
REMARK  884  A    between atoms: _3026  and  _3027
REMARK  885  A    between atoms: _3026  and  _3028
REMARK  886  A    between atoms: _3038  and  _3039
REMARK  887  A    between atoms: _3039  and  _3040
REMARK  888  A    between atoms: _3039  and  _3042
REMARK  889  A    between atoms: _3042  and  _3043
REMARK  890  A    between atoms: _3043  and  _3044
REMARK  891  A    between atoms: _3044  and  _3045
REMARK  892  A    between atoms: _3045  and  _3046
REMARK  893  A    between atoms: _3060  and  _3061
REMARK  894  A    between atoms: _3061  and  _3062
REMARK  895  A    between atoms: _3061  and  _3064
REMARK  896  A    between atoms: _3064  and  _3065
REMARK  897  A    between atoms: _3065  and  _3066
REMARK  898  A    between atoms: _3066  and  _3067
REMARK  899  A    between atoms: _3067  and  _3068
REMARK  900  A    between atoms: _3082  and  _3083
REMARK  901  A    between atoms: _3083  and  _3084
REMARK  902  A    between atoms: _3083  and  _3086
REMARK  903  A    between atoms: _3086  and  _3087
REMARK  904  A    between atoms: _3099  and  _3100
REMARK  905  A    between atoms: _3100  and  _3101
REMARK  906  A    between atoms: _3100  and  _3103
REMARK  907  A    between atoms: _3103  and  _3104
REMARK  908  A    between atoms: _3110  and  _3111
REMARK  909  A    between atoms: _3111  and  _3112
REMARK  910  A    between atoms: _3111  and  _3114
REMARK  911  A    between atoms: _3114  and  _3115
REMARK  912  A    between atoms: _3115  and  _3116
REMARK  913  A    between atoms: _3127  and  _3128
REMARK  914  A    between atoms: _3128  and  _3129
REMARK  915  A    between atoms: _3128  and  _3131
REMARK  916  A    between atoms: _3131  and  _3132
REMARK  917  A    between atoms: _3147  and  _3148
REMARK  918  A    between atoms: _3148  and  _3149
REMARK  919  A    between atoms: _3148  and  _3151
REMARK  920  A    between atoms: _3151  and  _3152
REMARK  921  A    between atoms: _3151  and  _3153
REMARK  922  A    between atoms: _3152  and  _3154
REMARK  923  A    between atoms: _3166  and  _3167
REMARK  924  A    between atoms: _3167  and  _3168
REMARK  925  A    between atoms: _3173  and  _3174
REMARK  926  A    between atoms: _3174  and  _3175
REMARK  927  A    between atoms: _3174  and  _3177
REMARK  928  A    between atoms: _3177  and  _3178
REMARK  929  A    between atoms: _3183  and  _3184
REMARK  930  A    between atoms: _3195  and  _3196
REMARK  931  A    between atoms: _3208  and  _3209
REMARK  932  A    between atoms: _3209  and  _3210
REMARK  933  A    between atoms: _3209  and  _3212
REMARK  934  A    between atoms: _3212  and  _3213
REMARK  935  A    between atoms: _3212  and  _3214
REMARK  936  A    between atoms: _3213  and  _3215
REMARK  937  A    between atoms: _3227  and  _3228
REMARK  938  A    between atoms: _3228  and  _3229
REMARK  939  A    between atoms: _3228  and  _3231
REMARK  940  A    between atoms: _3231  and  _3232
REMARK  941  A    between atoms: _3231  and  _3233
REMARK  942  A    between atoms: _3241  and  _3242
REMARK  943  A    between atoms: _3242  and  _3243
REMARK  944  A    between atoms: _3242  and  _3245
REMARK  945  A    between atoms: _3245  and  _3246
REMARK  946  A    between atoms: _3246  and  _3247
REMARK  947  A    between atoms: _3246  and  _3248
REMARK  948  A    between atoms: _3260  and  _3261
REMARK  949  A    between atoms: _3261  and  _3262
REMARK  950  A    between atoms: _3261  and  _3264
REMARK  951  A    between atoms: _3264  and  _3265
REMARK  952  A    between atoms: _3280  and  _3281
REMARK  953  A    between atoms: _3281  and  _3282
REMARK  954  A    between atoms: _3281  and  _3284
REMARK  955  A    between atoms: _3284  and  _3285
REMARK  956  A    between atoms: _3284  and  _3286
REMARK  957  A    between atoms: _3296  and  _3297
REMARK  958  A    between atoms: _3297  and  _3298
REMARK  959  A    between atoms: _3297  and  _3300
REMARK  960  A    between atoms: _3300  and  _3301
REMARK  961  A    between atoms: _3301  and  _3302
REMARK                            x       y       z     vdW  Elec       q    Type
REMARK                         _______ _______ _______ _____ _____    ______ ____
ROOT
ATOM      1  N   UNL     1       7.443  37.532  38.787  0.00  0.00    -0.163 NA
ATOM      2  H   UNL     1       7.493  36.742  39.421  0.00  0.00    +0.163 HD
ENDROOT
TORSDOF 0
REMARK  Name = /Users/mlugowska/PhD/ML_residence_time_prediction/protein_files/5J20_protein.pdb
REMARK  961 active torsions:
REMARK  status: ('A' for Active; 'I' for Inactive)
REMARK    1  A    between atoms: _2  and  _3
REMARK    2  A    between atoms: _2  and  _5
REMARK    3  A    between atoms: _10  and  _11
REMARK    4  A    between atoms: _11  and  _12
REMARK    5  A    between atoms: _11  and  _14
REMARK    6  A    between atoms: _14  and  _15
REMARK    7  A    between atoms: _14  and  _16
REMARK    8  A    between atoms: _26  and  _27
REMARK    9  A    between atoms: _27  and  _28
REMARK   10  A    between atoms: _27  and  _30
REMARK   11  A    between atoms: _30  and  _31
REMARK   12  A    between atoms: _31  and  _32
REMARK   13  A    between atoms: _41  and  _42
REMARK   14  A    between atoms: _42  and  _43
REMARK   15  A    between atoms: _42  and  _45
REMARK   16  A    between atoms: _45  and  _46
REMARK   17  A    between atoms: _45  and  _47
REMARK   18  A    between atoms: _55  and  _56
REMARK   19  A    between atoms: _56  and  _57
REMARK   20  A    between atoms: _56  and  _59
REMARK   21  A    between atoms: _59  and  _60
REMARK   22  A    between atoms: _75  and  _76
REMARK   23  A    between atoms: _76  and  _77
REMARK   24  A    between atoms: _76  and  _79
REMARK   25  A    between atoms: _85  and  _86
REMARK   26  A    between atoms: _86  and  _87
REMARK   27  A    between atoms: _86  and  _89
REMARK   28  A    between atoms: _89  and  _90
REMARK   29  A    between atoms: _105  and  _106
REMARK   30  A    between atoms: _106  and  _107
REMARK   31  A    between atoms: _106  and  _109
REMARK   32  A    between atoms: _109  and  _110
REMARK   33  A    between atoms: _110  and  _111
REMARK   34  A    between atoms: _122  and  _123
REMARK   35  A    between atoms: _123  and  _124
REMARK   36  A    between atoms: _123  and  _126
REMARK   37  A    between atoms: _132  and  _133
REMARK   38  A    between atoms: _133  and  _134
REMARK   39  A    between atoms: _133  and  _136
REMARK   40  A    between atoms: _136  and  _137
REMARK   41  A    between atoms: _137  and  _138
REMARK   42  A    between atoms: _147  and  _148
REMARK   43  A    between atoms: _148  and  _149
REMARK   44  A    between atoms: _148  and  _151
REMARK   45  A    between atoms: _151  and  _152
REMARK   46  A    between atoms: _151  and  _153
REMARK   47  A    between atoms: _152  and  _154
REMARK   48  A    between atoms: _166  and  _167
REMARK   49  A    between atoms: _167  and  _168
REMARK   50  A    between atoms: _167  and  _170
REMARK   51  A    between atoms: _176  and  _177
REMARK   52  A    between atoms: _177  and  _178
REMARK   53  A    between atoms: _177  and  _180
REMARK   54  A    between atoms: _180  and  _181
REMARK   55  A    between atoms: _181  and  _182
REMARK   56  A    between atoms: _193  and  _194
REMARK   57  A    between atoms: _194  and  _195
REMARK   58  A    between atoms: _194  and  _197
REMARK   59  A    between atoms: _197  and  _198
REMARK   60  A    between atoms: _198  and  _199
REMARK   61  A    between atoms: _198  and  _200
REMARK   62  A    between atoms: _212  and  _213
REMARK   63  A    between atoms: _213  and  _214
REMARK   64  A    between atoms: _213  and  _216
REMARK   65  A    between atoms: _216  and  _217
REMARK   66  A    between atoms: _217  and  _218
REMARK   67  A    between atoms: _218  and  _219
REMARK   68  A    between atoms: _229  and  _230
REMARK   69  A    between atoms: _230  and  _231
REMARK   70  A    between atoms: _230  and  _233
REMARK   71  A    between atoms: _233  and  _234
REMARK   72  A    between atoms: _240  and  _241
REMARK   73  A    between atoms: _241  and  _242
REMARK   74  A    between atoms: _241  and  _244
REMARK   75  A    between atoms: _244  and  _245
REMARK   76  A    between atoms: _245  and  _246
REMARK   77  A    between atoms: _245  and  _247
REMARK   78  A    between atoms: _259  and  _260
REMARK   79  A    between atoms: _260  and  _261
REMARK   80  A    between atoms: _260  and  _263
REMARK   81  A    between atoms: _263  and  _264
REMARK   82  A    between atoms: _263  and  _265
REMARK   83  A    between atoms: _264  and  _266
REMARK   84  A    between atoms: _278  and  _279
REMARK   85  A    between atoms: _279  and  _280
REMARK   86  A    between atoms: _279  and  _282
REMARK   87  A    between atoms: _282  and  _283
REMARK   88  A    between atoms: _282  and  _284
REMARK   89  A    between atoms: _283  and  _285
REMARK   90  A    between atoms: _297  and  _298
REMARK   91  A    between atoms: _298  and  _299
REMARK   92  A    between atoms: _298  and  _301
REMARK   93  A    between atoms: _301  and  _302
REMARK   94  A    between atoms: _311  and  _312
REMARK   95  A    between atoms: _312  and  _313
REMARK   96  A    between atoms: _312  and  _315
REMARK   97  A    between atoms: _315  and  _316
REMARK   98  A    between atoms: _315  and  _317
REMARK   99  A    between atoms: _325  and  _326
REMARK  100  A    between atoms: _326  and  _327
REMARK  101  A    between atoms: _326  and  _329
REMARK  102  A    between atoms: _329  and  _330
REMARK  103  A    between atoms: _345  and  _346
REMARK  104  A    between atoms: _346  and  _347
REMARK  105  A    between atoms: _346  and  _349
REMARK  106  A    between atoms: _349  and  _350
REMARK  107  A    between atoms: _355  and  _356
REMARK  108  A    between atoms: _366  and  _367
REMARK  109  A    between atoms: _367  and  _368
REMARK  110  A    between atoms: _367  and  _370
REMARK  111  A    between atoms: _370  and  _371
REMARK  112  A    between atoms: _377  and  _378
REMARK  113  A    between atoms: _378  and  _379
REMARK  114  A    between atoms: _378  and  _381
REMARK  115  A    between atoms: _381  and  _382
REMARK  116  A    between atoms: _391  and  _392
REMARK  117  A    between atoms: _392  and  _393
REMARK  118  A    between atoms: _392  and  _395
REMARK  119  A    between atoms: _395  and  _396
REMARK  120  A    between atoms: _396  and  _397
REMARK  121  A    between atoms: _397  and  _398
REMARK  122  A    between atoms: _398  and  _399
REMARK  123  A    between atoms: _413  and  _414
REMARK  124  A    between atoms: _414  and  _415
REMARK  125  A    between atoms: _414  and  _417
REMARK  126  A    between atoms: _417  and  _418
REMARK  127  A    between atoms: _418  and  _419
REMARK  128  A    between atoms: _428  and  _429
REMARK  129  A    between atoms: _429  and  _430
REMARK  130  A    between atoms: _429  and  _432
REMARK  131  A    between atoms: _432  and  _433
REMARK  132  A    between atoms: _432  and  _434
REMARK  133  A    between atoms: _433  and  _435
REMARK  134  A    between atoms: _447  and  _448
REMARK  135  A    between atoms: _448  and  _449
REMARK  136  A    between atoms: _448  and  _451
REMARK  137  A    between atoms: _451  and  _452
REMARK  138  A    between atoms: _467  and  _468
REMARK  139  A    between atoms: _468  and  _469
REMARK  140  A    between atoms: _468  and  _471
REMARK  141  A    between atoms: _471  and  _472
REMARK  142  A    between atoms: _472  and  _473
REMARK  143  A    between atoms: _472  and  _474
REMARK  144  A    between atoms: _486  and  _487
REMARK  145  A    between atoms: _487  and  _488
REMARK  146  A    between atoms: _487  and  _490
REMARK  147  A    between atoms: _490  and  _491
REMARK  148  A    between atoms: _491  and  _492
REMARK  149  A    between atoms: _492  and  _493
REMARK  150  A    between atoms: _510  and  _511
REMARK  151  A    between atoms: _511  and  _512
REMARK  152  A    between atoms: _511  and  _514
REMARK  153  A    between atoms: _514  and  _515
REMARK  154  A    between atoms: _515  and  _516
REMARK  155  A    between atoms: _525  and  _526
REMARK  156  A    between atoms: _526  and  _527
REMARK  157  A    between atoms: _526  and  _529
REMARK  158  A    between atoms: _529  and  _530
REMARK  159  A    between atoms: _530  and  _531
REMARK  160  A    between atoms: _530  and  _532
REMARK  161  A    between atoms: _544  and  _545
REMARK  162  A    between atoms: _545  and  _546
REMARK  163  A    between atoms: _545  and  _548
REMARK  164  A    between atoms: _548  and  _549
REMARK  165  A    between atoms: _548  and  _550
REMARK  166  A    between atoms: _549  and  _551
REMARK  167  A    between atoms: _563  and  _564
REMARK  168  A    between atoms: _564  and  _565
REMARK  169  A    between atoms: _564  and  _567
REMARK  170  A    between atoms: _567  and  _568
REMARK  171  A    between atoms: _574  and  _575
REMARK  172  A    between atoms: _575  and  _576
REMARK  173  A    between atoms: _575  and  _578
REMARK  174  A    between atoms: _578  and  _579
REMARK  175  A    between atoms: _588  and  _589
REMARK  176  A    between atoms: _589  and  _590
REMARK  177  A    between atoms: _589  and  _592
REMARK  178  A    between atoms: _592  and  _593
REMARK  179  A    between atoms: _599  and  _600
REMARK  180  A    between atoms: _600  and  _601
REMARK  181  A    between atoms: _600  and  _603
REMARK  182  A    between atoms: _603  and  _604
REMARK  183  A    between atoms: _610  and  _611
REMARK  184  A    between atoms: _611  and  _612
REMARK  185  A    between atoms: _611  and  _614
REMARK  186  A    between atoms: _614  and  _615
REMARK  187  A    between atoms: _622  and  _623
REMARK  188  A    between atoms: _623  and  _624
REMARK  189  A    between atoms: _623  and  _626
REMARK  190  A    between atoms: _632  and  _633
REMARK  191  A    between atoms: _633  and  _634
REMARK  192  A    between atoms: _633  and  _636
REMARK  193  A    between atoms: _636  and  _637
REMARK  194  A    between atoms: _637  and  _638
REMARK  195  A    between atoms: _637  and  _639
REMARK  196  A    between atoms: _651  and  _652
REMARK  197  A    between atoms: _652  and  _653
REMARK  198  A    between atoms: _652  and  _655
REMARK  199  A    between atoms: _655  and  _656
REMARK  200  A    between atoms: _663  and  _664
REMARK  201  A    between atoms: _664  and  _665
REMARK  202  A    between atoms: _664  and  _667
REMARK  203  A    between atoms: _667  and  _668
REMARK  204  A    between atoms: _668  and  _669
REMARK  205  A    between atoms: _669  and  _670
REMARK  206  A    between atoms: _670  and  _671
REMARK  207  A    between atoms: _685  and  _686
REMARK  208  A    between atoms: _686  and  _687
REMARK  209  A    between atoms: _686  and  _689
REMARK  210  A    between atoms: _689  and  _690
REMARK  211  A    between atoms: _689  and  _691
REMARK  212  A    between atoms: _690  and  _692
REMARK  213  A    between atoms: _704  and  _705
REMARK  214  A    between atoms: _705  and  _706
REMARK  215  A    between atoms: _705  and  _708
REMARK  216  A    between atoms: _708  and  _709
REMARK  217  A    between atoms: _709  and  _710
REMARK  218  A    between atoms: _710  and  _711
REMARK  219  A    between atoms: _728  and  _729
REMARK  220  A    between atoms: _729  and  _730
REMARK  221  A    between atoms: _729  and  _732
REMARK  222  A    between atoms: _732  and  _733
REMARK  223  A    between atoms: _738  and  _739
REMARK  224  A    between atoms: _749  and  _750
REMARK  225  A    between atoms: _750  and  _751
REMARK  226  A    between atoms: _750  and  _753
REMARK  227  A    between atoms: _753  and  _754
REMARK  228  A    between atoms: _754  and  _755
REMARK  229  A    between atoms: _764  and  _765
REMARK  230  A    between atoms: _765  and  _766
REMARK  231  A    between atoms: _765  and  _768
REMARK  232  A    between atoms: _772  and  _773
REMARK  233  A    between atoms: _773  and  _774
REMARK  234  A    between atoms: _773  and  _776
REMARK  235  A    between atoms: _776  and  _777
REMARK  236  A    between atoms: _777  and  _778
REMARK  237  A    between atoms: _777  and  _779
REMARK  238  A    between atoms: _791  and  _792
REMARK  239  A    between atoms: _792  and  _793
REMARK  240  A    between atoms: _792  and  _795
REMARK  241  A    between atoms: _795  and  _796
REMARK  242  A    between atoms: _795  and  _797
REMARK  243  A    between atoms: _805  and  _806
REMARK  244  A    between atoms: _806  and  _807
REMARK  245  A    between atoms: _806  and  _809
REMARK  246  A    between atoms: _809  and  _810
REMARK  247  A    between atoms: _818  and  _819
REMARK  248  A    between atoms: _831  and  _832
REMARK  249  A    between atoms: _832  and  _833
REMARK  250  A    between atoms: _832  and  _835
REMARK  251  A    between atoms: _835  and  _836
REMARK  252  A    between atoms: _842  and  _843
REMARK  253  A    between atoms: _843  and  _844
REMARK  254  A    between atoms: _843  and  _846
REMARK  255  A    between atoms: _846  and  _847
REMARK  256  A    between atoms: _847  and  _848
REMARK  257  A    between atoms: _848  and  _849
REMARK  258  A    between atoms: _849  and  _850
REMARK  259  A    between atoms: _864  and  _865
REMARK  260  A    between atoms: _865  and  _866
REMARK  261  A    between atoms: _865  and  _868
REMARK  262  A    between atoms: _868  and  _869
REMARK  263  A    between atoms: _869  and  _870
REMARK  264  A    between atoms: _869  and  _871
REMARK  265  A    between atoms: _883  and  _884
REMARK  266  A    between atoms: _884  and  _885
REMARK  267  A    between atoms: _884  and  _887
REMARK  268  A    between atoms: _887  and  _888
REMARK  269  A    between atoms: _895  and  _896
REMARK  270  A    between atoms: _896  and  _897
REMARK  271  A    between atoms: _896  and  _899
REMARK  272  A    between atoms: _899  and  _900
REMARK  273  A    between atoms: _906  and  _907
REMARK  274  A    between atoms: _907  and  _908
REMARK  275  A    between atoms: _913  and  _914
REMARK  276  A    between atoms: _914  and  _915
REMARK  277  A    between atoms: _914  and  _917
REMARK  278  A    between atoms: _917  and  _918
REMARK  279  A    between atoms: _918  and  _919
REMARK  280  A    between atoms: _919  and  _920
REMARK  281  A    between atoms: _920  and  _921
REMARK  282  A    between atoms: _935  and  _936
REMARK  283  A    between atoms: _936  and  _937
REMARK  284  A    between atoms: _936  and  _939
REMARK  285  A    between atoms: _939  and  _940
REMARK  286  A    between atoms: _940  and  _941
REMARK  287  A    between atoms: _950  and  _951
REMARK  288  A    between atoms: _951  and  _952
REMARK  289  A    between atoms: _951  and  _954
REMARK  290  A    between atoms: _954  and  _955
REMARK  291  A    between atoms: _955  and  _956
REMARK  292  A    between atoms: _955  and  _957
REMARK  293  A    between atoms: _969  and  _970
REMARK  294  A    between atoms: _970  and  _971
REMARK  295  A    between atoms: _970  and  _973
REMARK  296  A    between atoms: _973  and  _974
REMARK  297  A    between atoms: _986  and  _987
REMARK  298  A    between atoms: _987  and  _988
REMARK  299  A    between atoms: _987  and  _990
REMARK  300  A    between atoms: _990  and  _991
REMARK  301  A    between atoms: _990  and  _992
REMARK  302  A    between atoms: _991  and  _993
REMARK  303  A    between atoms: _1005  and  _1006
REMARK  304  A    between atoms: _1006  and  _1007
REMARK  305  A    between atoms: _1006  and  _1009
REMARK  306  A    between atoms: _1009  and  _1010
REMARK  307  A    between atoms: _1019  and  _1020
REMARK  308  A    between atoms: _1020  and  _1021
REMARK  309  A    between atoms: _1020  and  _1023
REMARK  310  A    between atoms: _1023  and  _1024
REMARK  311  A    between atoms: _1024  and  _1025
REMARK  312  A    between atoms: _1024  and  _1026
REMARK  313  A    between atoms: _1038  and  _1039
REMARK  314  A    between atoms: _1039  and  _1040
REMARK  315  A    between atoms: _1039  and  _1042
REMARK  316  A    between atoms: _1042  and  _1043
REMARK  317  A    between atoms: _1042  and  _1044
REMARK  318  A    between atoms: _1043  and  _1045
REMARK  319  A    between atoms: _1058  and  _1059
REMARK  320  A    between atoms: _1071  and  _1072
REMARK  321  A    between atoms: _1072  and  _1073
REMARK  322  A    between atoms: _1072  and  _1075
REMARK  323  A    between atoms: _1075  and  _1076
REMARK  324  A    between atoms: _1085  and  _1086
REMARK  325  A    between atoms: _1086  and  _1087
REMARK  326  A    between atoms: _1086  and  _1089
REMARK  327  A    between atoms: _1089  and  _1090
REMARK  328  A    between atoms: _1090  and  _1091
REMARK  329  A    between atoms: _1091  and  _1092
REMARK  330  A    between atoms: _1092  and  _1093
REMARK  331  A    between atoms: _1107  and  _1108
REMARK  332  A    between atoms: _1108  and  _1109
REMARK  333  A    between atoms: _1108  and  _1111
REMARK  334  A    between atoms: _1111  and  _1112
REMARK  335  A    between atoms: _1112  and  _1113
REMARK  336  A    between atoms: _1124  and  _1125
REMARK  337  A    between atoms: _1125  and  _1126
REMARK  338  A    between atoms: _1125  and  _1128
REMARK  339  A    between atoms: _1128  and  _1129
REMARK  340  A    between atoms: _1136  and  _1137
REMARK  341  A    between atoms: _1137  and  _1138
REMARK  342  A    between atoms: _1137  and  _1140
REMARK  343  A    between atoms: _1140  and  _1141
REMARK  344  A    between atoms: _1141  and  _1142
REMARK  345  A    between atoms: _1142  and  _1143
REMARK  346  A    between atoms: _1160  and  _1161
REMARK  347  A    between atoms: _1161  and  _1162
REMARK  348  A    between atoms: _1161  and  _1164
REMARK  349  A    between atoms: _1164  and  _1165
REMARK  350  A    between atoms: _1164  and  _1166
REMARK  351  A    between atoms: _1174  and  _1175
REMARK  352  A    between atoms: _1175  and  _1176
REMARK  353  A    between atoms: _1175  and  _1178
REMARK  354  A    between atoms: _1178  and  _1179
REMARK  355  A    between atoms: _1179  and  _1180
REMARK  356  A    between atoms: _1179  and  _1181
REMARK  357  A    between atoms: _1193  and  _1194
REMARK  358  A    between atoms: _1194  and  _1195
REMARK  359  A    between atoms: _1194  and  _1197
REMARK  360  A    between atoms: _1197  and  _1198
REMARK  361  A    between atoms: _1197  and  _1199
REMARK  362  A    between atoms: _1207  and  _1208
REMARK  363  A    between atoms: _1208  and  _1209
REMARK  364  A    between atoms: _1208  and  _1211
REMARK  365  A    between atoms: _1211  and  _1212
REMARK  366  A    between atoms: _1211  and  _1213
REMARK  367  A    between atoms: _1212  and  _1214
REMARK  368  A    between atoms: _1226  and  _1227
REMARK  369  A    between atoms: _1227  and  _1228
REMARK  370  A    between atoms: _1227  and  _1230
REMARK  371  A    between atoms: _1230  and  _1231
REMARK  372  A    between atoms: _1230  and  _1232
REMARK  373  A    between atoms: _1242  and  _1243
REMARK  374  A    between atoms: _1243  and  _1244
REMARK  375  A    between atoms: _1243  and  _1246
REMARK  376  A    between atoms: _1246  and  _1247
REMARK  377  A    between atoms: _1254  and  _1255
REMARK  378  A    between atoms: _1255  and  _1256
REMARK  379  A    between atoms: _1255  and  _1258
REMARK  380  A    between atoms: _1258  and  _1259
REMARK  381  A    between atoms: _1258  and  _1260
REMARK  382  A    between atoms: _1268  and  _1269
REMARK  383  A    between atoms: _1269  and  _1270
REMARK  384  A    between atoms: _1275  and  _1276
REMARK  385  A    between atoms: _1276  and  _1277
REMARK  386  A    between atoms: _1276  and  _1279
REMARK  387  A    between atoms: _1279  and  _1280
REMARK  388  A    between atoms: _1279  and  _1281
REMARK  389  A    between atoms: _1280  and  _1282
REMARK  390  A    between atoms: _1294  and  _1295
REMARK  391  A    between atoms: _1295  and  _1296
REMARK  392  A    between atoms: _1301  and  _1302
REMARK  393  A    between atoms: _1302  and  _1303
REMARK  394  A    between atoms: _1302  and  _1305
REMARK  395  A    between atoms: _1305  and  _1306
REMARK  396  A    between atoms: _1306  and  _1307
REMARK  397  A    between atoms: _1307  and  _1308
REMARK  398  A    between atoms: _1318  and  _1319
REMARK  399  A    between atoms: _1319  and  _1320
REMARK  400  A    between atoms: _1319  and  _1322
REMARK  401  A    between atoms: _1322  and  _1323
REMARK  402  A    between atoms: _1322  and  _1324
REMARK  403  A    between atoms: _1332  and  _1333
REMARK  404  A    between atoms: _1333  and  _1334
REMARK  405  A    between atoms: _1333  and  _1336
REMARK  406  A    between atoms: _1336  and  _1337
REMARK  407  A    between atoms: _1337  and  _1338
REMARK  408  A    between atoms: _1338  and  _1339
REMARK  409  A    between atoms: _1339  and  _1340
REMARK  410  A    between atoms: _1354  and  _1355
REMARK  411  A    between atoms: _1355  and  _1356
REMARK  412  A    between atoms: _1355  and  _1358
REMARK  413  A    between atoms: _1364  and  _1365
REMARK  414  A    between atoms: _1365  and  _1366
REMARK  415  A    between atoms: _1365  and  _1368
REMARK  416  A    between atoms: _1368  and  _1369
REMARK  417  A    between atoms: _1376  and  _1377
REMARK  418  A    between atoms: _1377  and  _1378
REMARK  419  A    between atoms: _1377  and  _1380
REMARK  420  A    between atoms: _1380  and  _1381
REMARK  421  A    between atoms: _1381  and  _1382
REMARK  422  A    between atoms: _1381  and  _1383
REMARK  423  A    between atoms: _1395  and  _1396
REMARK  424  A    between atoms: _1396  and  _1399
REMARK  425  A    between atoms: _1399  and  _1400
REMARK  426  A    between atoms: _1399  and  _1401
REMARK  427  A    between atoms: _1400  and  _1402
REMARK  428  A    between atoms: _1422  and  _1425
REMARK  429  A    between atoms: _1424  and  _1428
REMARK  430  A    between atoms: _1425  and  _1427
REMARK  431  A    between atoms: _1443  and  _1444
REMARK  432  A    between atoms: _1443  and  _1446
REMARK  433  A    between atoms: _1446  and  _1447
REMARK  434  A    between atoms: _1457  and  _1458
REMARK  435  A    between atoms: _1458  and  _1459
REMARK  436  A    between atoms: _1458  and  _1461
REMARK  437  A    between atoms: _1461  and  _1462
REMARK  438  A    between atoms: _1462  and  _1463
REMARK  439  A    between atoms: _1462  and  _1464
REMARK  440  A    between atoms: _1476  and  _1477
REMARK  441  A    between atoms: _1477  and  _1478
REMARK  442  A    between atoms: _1483  and  _1484
REMARK  443  A    between atoms: _1484  and  _1485
REMARK  444  A    between atoms: _1484  and  _1487
REMARK  445  A    between atoms: _1487  and  _1488
REMARK  446  A    between atoms: _1487  and  _1489
REMARK  447  A    between atoms: _1497  and  _1498
REMARK  448  A    between atoms: _1498  and  _1499
REMARK  449  A    between atoms: _1498  and  _1501
REMARK  450  A    between atoms: _1501  and  _1502
REMARK  451  A    between atoms: _1501  and  _1503
REMARK  452  A    between atoms: _1502  and  _1504
REMARK  453  A    between atoms: _1516  and  _1517
REMARK  454  A    between atoms: _1517  and  _1518
REMARK  455  A    between atoms: _1517  and  _1520
REMARK  456  A    between atoms: _1526  and  _1527
REMARK  457  A    between atoms: _1527  and  _1528
REMARK  458  A    between atoms: _1527  and  _1530
REMARK  459  A    between atoms: _1530  and  _1531
REMARK  460  A    between atoms: _1531  and  _1532
REMARK  461  A    between atoms: _1532  and  _1533
REMARK  462  A    between atoms: _1533  and  _1534
REMARK  463  A    between atoms: _1548  and  _1549
REMARK  464  A    between atoms: _1549  and  _1550
REMARK  465  A    between atoms: _1549  and  _1552
REMARK  466  A    between atoms: _1552  and  _1553
REMARK  467  A    between atoms: _1559  and  _1560
REMARK  468  A    between atoms: _1560  and  _1561
REMARK  469  A    between atoms: _1566  and  _1567
REMARK  470  A    between atoms: _1567  and  _1568
REMARK  471  A    between atoms: _1567  and  _1570
REMARK  472  A    between atoms: _1570  and  _1571
REMARK  473  A    between atoms: _1570  and  _1572
REMARK  474  A    between atoms: _1580  and  _1581
REMARK  475  A    between atoms: _1581  and  _1582
REMARK  476  A    between atoms: _1581  and  _1584
REMARK  477  A    between atoms: _1584  and  _1585
REMARK  478  A    between atoms: _1585  and  _1586
REMARK  479  A    between atoms: _1586  and  _1587
REMARK  480  A    between atoms: _1587  and  _1588
REMARK  481  A    between atoms: _1602  and  _1603
REMARK  482  A    between atoms: _1603  and  _1604
REMARK  483  A    between atoms: _1603  and  _1606
REMARK  484  A    between atoms: _1612  and  _1613
REMARK  485  A    between atoms: _1613  and  _1614
REMARK  486  A    between atoms: _1613  and  _1616
REMARK  487  A    between atoms: _1616  and  _1617
REMARK  488  A    between atoms: _1632  and  _1633
REMARK  489  A    between atoms: _1633  and  _1634
REMARK  490  A    between atoms: _1633  and  _1636
REMARK  491  A    between atoms: _1636  and  _1637
REMARK  492  A    between atoms: _1637  and  _1638
REMARK  493  A    between atoms: _1638  and  _1639
REMARK  494  A    between atoms: _1649  and  _1650
REMARK  495  A    between atoms: _1650  and  _1651
REMARK  496  A    between atoms: _1650  and  _1653
REMARK  497  A    between atoms: _1653  and  _1654
REMARK  498  A    between atoms: _1654  and  _1655
REMARK  499  A    between atoms: _1664  and  _1665
REMARK  500  A    between atoms: _1665  and  _1666
REMARK  501  A    between atoms: _1665  and  _1668
REMARK  502  A    between atoms: _1674  and  _1675
REMARK  503  A    between atoms: _1675  and  _1676
REMARK  504  A    between atoms: _1675  and  _1678
REMARK  505  A    between atoms: _1678  and  _1679
REMARK  506  A    between atoms: _1679  and  _1680
REMARK  507  A    between atoms: _1679  and  _1681
REMARK  508  A    between atoms: _1693  and  _1694
REMARK  509  A    between atoms: _1694  and  _1695
REMARK  510  A    between atoms: _1694  and  _1697
REMARK  511  A    between atoms: _1697  and  _1698
REMARK  512  A    between atoms: _1698  and  _1699
REMARK  513  A    between atoms: _1710  and  _1711
REMARK  514  A    between atoms: _1711  and  _1712
REMARK  515  A    between atoms: _1711  and  _1714
REMARK  516  A    between atoms: _1720  and  _1721
REMARK  517  A    between atoms: _1721  and  _1722
REMARK  518  A    between atoms: _1727  and  _1728
REMARK  519  A    between atoms: _1728  and  _1729
REMARK  520  A    between atoms: _1728  and  _1731
REMARK  521  A    between atoms: _1737  and  _1738
REMARK  522  A    between atoms: _1738  and  _1739
REMARK  523  A    between atoms: _1738  and  _1741
REMARK  524  A    between atoms: _1741  and  _1742
REMARK  525  A    between atoms: _1749  and  _1750
REMARK  526  A    between atoms: _1750  and  _1751
REMARK  527  A    between atoms: _1750  and  _1753
REMARK  528  A    between atoms: _1753  and  _1754
REMARK  529  A    between atoms: _1753  and  _1755
REMARK  530  A    between atoms: _1754  and  _1756
REMARK  531  A    between atoms: _1768  and  _1769
REMARK  532  A    between atoms: _1769  and  _1772
REMARK  533  A    between atoms: _1772  and  _1773
REMARK  534  A    between atoms: _1791  and  _1793
REMARK  535  A    between atoms: _1792  and  _1794
REMARK  536  A    between atoms: _1814  and  _1815
REMARK  537  A    between atoms: _1814  and  _1817
REMARK  538  A    between atoms: _1817  and  _1818
REMARK  539  A    between atoms: _1817  and  _1819
REMARK  540  A    between atoms: _1818  and  _1820
REMARK  541  A    between atoms: _1833  and  _1834
REMARK  542  A    between atoms: _1834  and  _1835
REMARK  543  A    between atoms: _1840  and  _1841
REMARK  544  A    between atoms: _1841  and  _1842
REMARK  545  A    between atoms: _1841  and  _1844
REMARK  546  A    between atoms: _1844  and  _1845
REMARK  547  A    between atoms: _1845  and  _1846
REMARK  548  A    between atoms: _1857  and  _1858
REMARK  549  A    between atoms: _1858  and  _1859
REMARK  550  A    between atoms: _1858  and  _1861
REMARK  551  A    between atoms: _1861  and  _1862
REMARK  552  A    between atoms: _1877  and  _1878
REMARK  553  A    between atoms: _1878  and  _1879
REMARK  554  A    between atoms: _1884  and  _1885
REMARK  555  A    between atoms: _1885  and  _1886
REMARK  556  A    between atoms: _1885  and  _1888
REMARK  557  A    between atoms: _1888  and  _1889
REMARK  558  A    between atoms: _1888  and  _1890
REMARK  559  A    between atoms: _1900  and  _1901
REMARK  560  A    between atoms: _1901  and  _1902
REMARK  561  A    between atoms: _1907  and  _1908
REMARK  562  A    between atoms: _1908  and  _1909
REMARK  563  A    between atoms: _1908  and  _1911
REMARK  564  A    between atoms: _1911  and  _1912
REMARK  565  A    between atoms: _1927  and  _1928
REMARK  566  A    between atoms: _1928  and  _1929
REMARK  567  A    between atoms: _1928  and  _1931
REMARK  568  A    between atoms: _1931  and  _1932
REMARK  569  A    between atoms: _1937  and  _1938
REMARK  570  A    between atoms: _1948  and  _1949
REMARK  571  A    between atoms: _1949  and  _1950
REMARK  572  A    between atoms: _1949  and  _1952
REMARK  573  A    between atoms: _1952  and  _1953
REMARK  574  A    between atoms: _1959  and  _1960
REMARK  575  A    between atoms: _1960  and  _1961
REMARK  576  A    between atoms: _1960  and  _1963
REMARK  577  A    between atoms: _1969  and  _1970
REMARK  578  A    between atoms: _1970  and  _1971
REMARK  579  A    between atoms: _1970  and  _1973
REMARK  580  A    between atoms: _1973  and  _1974
REMARK  581  A    between atoms: _1979  and  _1980
REMARK  582  A    between atoms: _1990  and  _1991
REMARK  583  A    between atoms: _1991  and  _1992
REMARK  584  A    between atoms: _1991  and  _1994
REMARK  585  A    between atoms: _1994  and  _1995
REMARK  586  A    between atoms: _1995  and  _1996
REMARK  587  A    between atoms: _1995  and  _1997
REMARK  588  A    between atoms: _2009  and  _2010
REMARK  589  A    between atoms: _2010  and  _2011
REMARK  590  A    between atoms: _2010  and  _2013
REMARK  591  A    between atoms: _2013  and  _2014
REMARK  592  A    between atoms: _2013  and  _2015
REMARK  593  A    between atoms: _2025  and  _2026
REMARK  594  A    between atoms: _2026  and  _2027
REMARK  595  A    between atoms: _2026  and  _2029
REMARK  596  A    between atoms: _2035  and  _2036
REMARK  597  A    between atoms: _2036  and  _2037
REMARK  598  A    between atoms: _2036  and  _2039
REMARK  599  A    between atoms: _2039  and  _2040
REMARK  600  A    between atoms: _2040  and  _2041
REMARK  601  A    between atoms: _2050  and  _2051
REMARK  602  A    between atoms: _2051  and  _2052
REMARK  603  A    between atoms: _2051  and  _2054
REMARK  604  A    between atoms: _2054  and  _2055
REMARK  605  A    between atoms: _2055  and  _2056
REMARK  606  A    between atoms: _2056  and  _2057
REMARK  607  A    between atoms: _2057  and  _2058
REMARK  608  A    between atoms: _2072  and  _2073
REMARK  609  A    between atoms: _2073  and  _2074
REMARK  610  A    between atoms: _2073  and  _2076
REMARK  611  A    between atoms: _2076  and  _2077
REMARK  612  A    between atoms: _2076  and  _2078
REMARK  613  A    between atoms: _2088  and  _2089
REMARK  614  A    between atoms: _2089  and  _2090
REMARK  615  A    between atoms: _2089  and  _2092
REMARK  616  A    between atoms: _2092  and  _2093
REMARK  617  A    between atoms: _2092  and  _2094
REMARK  618  A    between atoms: _2102  and  _2103
REMARK  619  A    between atoms: _2103  and  _2104
REMARK  620  A    between atoms: _2103  and  _2106
REMARK  621  A    between atoms: _2106  and  _2107
REMARK  622  A    between atoms: _2106  and  _2108
REMARK  623  A    between atoms: _2118  and  _2119
REMARK  624  A    between atoms: _2119  and  _2120
REMARK  625  A    between atoms: _2119  and  _2122
REMARK  626  A    between atoms: _2122  and  _2123
REMARK  627  A    between atoms: _2122  and  _2124
REMARK  628  A    between atoms: _2123  and  _2125
REMARK  629  A    between atoms: _2137  and  _2138
REMARK  630  A    between atoms: _2138  and  _2139
REMARK  631  A    between atoms: _2138  and  _2141
REMARK  632  A    between atoms: _2141  and  _2142
REMARK  633  A    between atoms: _2141  and  _2143
REMARK  634  A    between atoms: _2151  and  _2152
REMARK  635  A    between atoms: _2152  and  _2153
REMARK  636  A    between atoms: _2152  and  _2155
REMARK  637  A    between atoms: _2155  and  _2156
REMARK  638  A    between atoms: _2156  and  _2157
REMARK  639  A    between atoms: _2157  and  _2158
REMARK  640  A    between atoms: _2158  and  _2159
REMARK  641  A    between atoms: _2173  and  _2174
REMARK  642  A    between atoms: _2174  and  _2175
REMARK  643  A    between atoms: _2174  and  _2177
REMARK  644  A    between atoms: _2177  and  _2178
REMARK  645  A    between atoms: _2190  and  _2191
REMARK  646  A    between atoms: _2191  and  _2192
REMARK  647  A    between atoms: _2191  and  _2194
REMARK  648  A    between atoms: _2194  and  _2195
REMARK  649  A    between atoms: _2204  and  _2205
REMARK  650  A    between atoms: _2205  and  _2206
REMARK  651  A    between atoms: _2205  and  _2208
REMARK  652  A    between atoms: _2208  and  _2209
REMARK  653  A    between atoms: _2216  and  _2217
REMARK  654  A    between atoms: _2217  and  _2218
REMARK  655  A    between atoms: _2217  and  _2220
REMARK  656  A    between atoms: _2220  and  _2221
REMARK  657  A    between atoms: _2228  and  _2229
REMARK  658  A    between atoms: _2229  and  _2230
REMARK  659  A    between atoms: _2229  and  _2232
REMARK  660  A    between atoms: _2232  and  _2233
REMARK  661  A    between atoms: _2233  and  _2234
REMARK  662  A    between atoms: _2243  and  _2244
REMARK  663  A    between atoms: _2244  and  _2245
REMARK  664  A    between atoms: _2244  and  _2247
REMARK  665  A    between atoms: _2247  and  _2248
REMARK  666  A    between atoms: _2248  and  _2249
REMARK  667  A    between atoms: _2260  and  _2261
REMARK  668  A    between atoms: _2261  and  _2262
REMARK  669  A    between atoms: _2261  and  _2264
REMARK  670  A    between atoms: _2264  and  _2265
REMARK  671  A    between atoms: _2270  and  _2271
REMARK  672  A    between atoms: _2281  and  _2282
REMARK  673  A    between atoms: _2282  and  _2283
REMARK  674  A    between atoms: _2282  and  _2285
REMARK  675  A    between atoms: _2291  and  _2292
REMARK  676  A    between atoms: _2292  and  _2293
REMARK  677  A    between atoms: _2292  and  _2295
REMARK  678  A    between atoms: _2295  and  _2296
REMARK  679  A    between atoms: _2315  and  _2316
REMARK  680  A    between atoms: _2316  and  _2317
REMARK  681  A    between atoms: _2316  and  _2319
REMARK  682  A    between atoms: _2319  and  _2320
REMARK  683  A    between atoms: _2320  and  _2321
REMARK  684  A    between atoms: _2330  and  _2331
REMARK  685  A    between atoms: _2331  and  _2332
REMARK  686  A    between atoms: _2331  and  _2334
REMARK  687  A    between atoms: _2334  and  _2335
REMARK  688  A    between atoms: _2341  and  _2342
REMARK  689  A    between atoms: _2342  and  _2343
REMARK  690  A    between atoms: _2342  and  _2345
REMARK  691  A    between atoms: _2345  and  _2346
REMARK  692  A    between atoms: _2352  and  _2353
REMARK  693  A    between atoms: _2353  and  _2354
REMARK  694  A    between atoms: _2353  and  _2356
REMARK  695  A    between atoms: _2362  and  _2363
REMARK  696  A    between atoms: _2363  and  _2364
REMARK  697  A    between atoms: _2369  and  _2370
REMARK  698  A    between atoms: _2370  and  _2371
REMARK  699  A    between atoms: _2376  and  _2377
REMARK  700  A    between atoms: _2377  and  _2378
REMARK  701  A    between atoms: _2377  and  _2380
REMARK  702  A    between atoms: _2380  and  _2381
REMARK  703  A    between atoms: _2387  and  _2388
REMARK  704  A    between atoms: _2388  and  _2389
REMARK  705  A    between atoms: _2388  and  _2391
REMARK  706  A    between atoms: _2391  and  _2392
REMARK  707  A    between atoms: _2407  and  _2408
REMARK  708  A    between atoms: _2408  and  _2409
REMARK  709  A    between atoms: _2408  and  _2411
REMARK  710  A    between atoms: _2411  and  _2412
REMARK  711  A    between atoms: _2411  and  _2413
REMARK  712  A    between atoms: _2421  and  _2422
REMARK  713  A    between atoms: _2422  and  _2423
REMARK  714  A    between atoms: _2422  and  _2425
REMARK  715  A    between atoms: _2425  and  _2426
REMARK  716  A    between atoms: _2425  and  _2427
REMARK  717  A    between atoms: _2437  and  _2438
REMARK  718  A    between atoms: _2438  and  _2439
REMARK  719  A    between atoms: _2438  and  _2441
REMARK  720  A    between atoms: _2441  and  _2442
REMARK  721  A    between atoms: _2442  and  _2443
REMARK  722  A    between atoms: _2443  and  _2444
REMARK  723  A    between atoms: _2461  and  _2462
REMARK  724  A    between atoms: _2462  and  _2463
REMARK  725  A    between atoms: _2462  and  _2465
REMARK  726  A    between atoms: _2465  and  _2466
REMARK  727  A    between atoms: _2465  and  _2467
REMARK  728  A    between atoms: _2475  and  _2476
REMARK  729  A    between atoms: _2476  and  _2477
REMARK  730  A    between atoms: _2476  and  _2479
REMARK  731  A    between atoms: _2479  and  _2480
REMARK  732  A    between atoms: _2487  and  _2488
REMARK  733  A    between atoms: _2488  and  _2489
REMARK  734  A    between atoms: _2488  and  _2491
REMARK  735  A    between atoms: _2491  and  _2492
REMARK  736  A    between atoms: _2491  and  _2493
REMARK  737  A    between atoms: _2501  and  _2502
REMARK  738  A    between atoms: _2502  and  _2503
REMARK  739  A    between atoms: _2508  and  _2509
REMARK  740  A    between atoms: _2509  and  _2510
REMARK  741  A    between atoms: _2509  and  _2512
REMARK  742  A    between atoms: _2512  and  _2513
REMARK  743  A    between atoms: _2513  and  _2514
REMARK  744  A    between atoms: _2524  and  _2525
REMARK  745  A    between atoms: _2537  and  _2538
REMARK  746  A    between atoms: _2538  and  _2539
REMARK  747  A    between atoms: _2538  and  _2541
REMARK  748  A    between atoms: _2541  and  _2542
REMARK  749  A    between atoms: _2542  and  _2543
REMARK  750  A    between atoms: _2543  and  _2544
REMARK  751  A    between atoms: _2554  and  _2555
REMARK  752  A    between atoms: _2555  and  _2556
REMARK  753  A    between atoms: _2561  and  _2562
REMARK  754  A    between atoms: _2562  and  _2563
REMARK  755  A    between atoms: _2562  and  _2565
REMARK  756  A    between atoms: _2565  and  _2566
REMARK  757  A    between atoms: _2566  and  _2567
REMARK  758  A    between atoms: _2567  and  _2568
REMARK  759  A    between atoms: _2585  and  _2586
REMARK  760  A    between atoms: _2586  and  _2587
REMARK  761  A    between atoms: _2592  and  _2593
REMARK  762  A    between atoms: _2593  and  _2594
REMARK  763  A    between atoms: _2593  and  _2596
REMARK  764  A    between atoms: _2596  and  _2597
REMARK  765  A    between atoms: _2596  and  _2598
REMARK  766  A    between atoms: _2606  and  _2607
REMARK  767  A    between atoms: _2607  and  _2608
REMARK  768  A    between atoms: _2607  and  _2610
REMARK  769  A    between atoms: _2610  and  _2611
REMARK  770  A    between atoms: _2611  and  _2612
REMARK  771  A    between atoms: _2612  and  _2613
REMARK  772  A    between atoms: _2613  and  _2614
REMARK  773  A    between atoms: _2628  and  _2629
REMARK  774  A    between atoms: _2629  and  _2630
REMARK  775  A    between atoms: _2629  and  _2632
REMARK  776  A    between atoms: _2632  and  _2633
REMARK  777  A    between atoms: _2632  and  _2634
REMARK  778  A    between atoms: _2644  and  _2645
REMARK  779  A    between atoms: _2645  and  _2646
REMARK  780  A    between atoms: _2645  and  _2648
REMARK  781  A    between atoms: _2648  and  _2649
REMARK  782  A    between atoms: _2648  and  _2650
REMARK  783  A    between atoms: _2649  and  _2651
REMARK  784  A    between atoms: _2663  and  _2664
REMARK  785  A    between atoms: _2664  and  _2665
REMARK  786  A    between atoms: _2664  and  _2667
REMARK  787  A    between atoms: _2667  and  _2668
REMARK  788  A    between atoms: _2668  and  _2669
REMARK  789  A    between atoms: _2668  and  _2670
REMARK  790  A    between atoms: _2682  and  _2683
REMARK  791  A    between atoms: _2683  and  _2684
REMARK  792  A    between atoms: _2683  and  _2686
REMARK  793  A    between atoms: _2686  and  _2687
REMARK  794  A    between atoms: _2699  and  _2700
REMARK  795  A    between atoms: _2700  and  _2701
REMARK  796  A    between atoms: _2700  and  _2703
REMARK  797  A    between atoms: _2703  and  _2704
REMARK  798  A    between atoms: _2704  and  _2705
REMARK  799  A    between atoms: _2704  and  _2706
REMARK  800  A    between atoms: _2718  and  _2719
REMARK  801  A    between atoms: _2719  and  _2720
REMARK  802  A    between atoms: _2719  and  _2722
REMARK  803  A    between atoms: _2722  and  _2723
REMARK  804  A    between atoms: _2723  and  _2724
REMARK  805  A    between atoms: _2724  and  _2725
REMARK  806  A    between atoms: _2725  and  _2726
REMARK  807  A    between atoms: _2740  and  _2741
REMARK  808  A    between atoms: _2741  and  _2742
REMARK  809  A    between atoms: _2741  and  _2744
REMARK  810  A    between atoms: _2744  and  _2745
REMARK  811  A    between atoms: _2745  and  _2746
REMARK  812  A    between atoms: _2755  and  _2756
REMARK  813  A    between atoms: _2756  and  _2757
REMARK  814  A    between atoms: _2756  and  _2759
REMARK  815  A    between atoms: _2759  and  _2760
REMARK  816  A    between atoms: _2767  and  _2768
REMARK  817  A    between atoms: _2768  and  _2769
REMARK  818  A    between atoms: _2768  and  _2771
REMARK  819  A    between atoms: _2771  and  _2772
REMARK  820  A    between atoms: _2772  and  _2773
REMARK  821  A    between atoms: _2784  and  _2785
REMARK  822  A    between atoms: _2785  and  _2786
REMARK  823  A    between atoms: _2785  and  _2788
REMARK  824  A    between atoms: _2788  and  _2789
REMARK  825  A    between atoms: _2788  and  _2790
REMARK  826  A    between atoms: _2798  and  _2799
REMARK  827  A    between atoms: _2799  and  _2800
REMARK  828  A    between atoms: _2799  and  _2802
REMARK  829  A    between atoms: _2802  and  _2803
REMARK  830  A    between atoms: _2803  and  _2804
REMARK  831  A    between atoms: _2813  and  _2814
REMARK  832  A    between atoms: _2814  and  _2815
REMARK  833  A    between atoms: _2814  and  _2817
REMARK  834  A    between atoms: _2817  and  _2818
REMARK  835  A    between atoms: _2823  and  _2824
REMARK  836  A    between atoms: _2834  and  _2835
REMARK  837  A    between atoms: _2835  and  _2838
REMARK  838  A    between atoms: _2838  and  _2839
REMARK  839  A    between atoms: _2839  and  _2840
REMARK  840  A    between atoms: _2839  and  _2841
REMARK  841  A    between atoms: _2884  and  _2885
REMARK  842  A    between atoms: _2884  and  _2887
REMARK  843  A    between atoms: _2887  and  _2888
REMARK  844  A    between atoms: _2888  and  _2889
REMARK  845  A    between atoms: _2899  and  _2900
REMARK  846  A    between atoms: _2900  and  _2901
REMARK  847  A    between atoms: _2900  and  _2903
REMARK  848  A    between atoms: _2903  and  _2904
REMARK  849  A    between atoms: _2904  and  _2905
REMARK  850  A    between atoms: _2905  and  _2906
REMARK  851  A    between atoms: _2923  and  _2924
REMARK  852  A    between atoms: _2924  and  _2925
REMARK  853  A    between atoms: _2924  and  _2927
REMARK  854  A    between atoms: _2927  and  _2928
REMARK  855  A    between atoms: _2928  and  _2929
REMARK  856  A    between atoms: _2929  and  _2930
REMARK  857  A    between atoms: _2947  and  _2948
REMARK  858  A    between atoms: _2948  and  _2949
REMARK  859  A    between atoms: _2948  and  _2951
REMARK  860  A    between atoms: _2951  and  _2952
REMARK  861  A    between atoms: _2951  and  _2953
REMARK  862  A    between atoms: _2952  and  _2954
REMARK  863  A    between atoms: _2966  and  _2967
REMARK  864  A    between atoms: _2967  and  _2968
REMARK  865  A    between atoms: _2967  and  _2970
REMARK  866  A    between atoms: _2970  and  _2971
REMARK  867  A    between atoms: _2971  and  _2972
REMARK  868  A    between atoms: _2972  and  _2973
REMARK  869  A    between atoms: _2973  and  _2974
REMARK  870  A    between atoms: _2988  and  _2989
REMARK  871  A    between atoms: _2989  and  _2990
REMARK  872  A    between atoms: _2989  and  _2992
REMARK  873  A    between atoms: _2992  and  _2993
REMARK  874  A    between atoms: _2993  and  _2994
REMARK  875  A    between atoms: _3003  and  _3004
REMARK  876  A    between atoms: _3004  and  _3005
REMARK  877  A    between atoms: _3004  and  _3007
REMARK  878  A    between atoms: _3007  and  _3008
REMARK  879  A    between atoms: _3007  and  _3009
REMARK  880  A    between atoms: _3008  and  _3010
REMARK  881  A    between atoms: _3022  and  _3023
REMARK  882  A    between atoms: _3023  and  _3024
REMARK  883  A    between atoms: _3023  and  _3026
REMARK  884  A    between atoms: _3026  and  _3027
REMARK  885  A    between atoms: _3026  and  _3028
REMARK  886  A    between atoms: _3038  and  _3039
REMARK  887  A    between atoms: _3039  and  _3040
REMARK  888  A    between atoms: _3039  and  _3042
REMARK  889  A    between atoms: _3042  and  _3043
REMARK  890  A    between atoms: _3043  and  _3044
REMARK  891  A    between atoms: _3044  and  _3045
REMARK  892  A    between atoms: _3045  and  _3046
REMARK  893  A    between atoms: _3060  and  _3061
REMARK  894  A    between atoms: _3061  and  _3062
REMARK  895  A    between atoms: _3061  and  _3064
REMARK  896  A    between atoms: _3064  and  _3065
REMARK  897  A    between atoms: _3065  and  _3066
REMARK  898  A    between atoms: _3066  and  _3067
REMARK  899  A    between atoms: _3067  and  _3068
REMARK  900  A    between atoms: _3082  and  _3083
REMARK  901  A    between atoms: _3083  and  _3084
REMARK  902  A    between atoms: _3083  and  _3086
REMARK  903  A    between atoms: _3086  and  _3087
REMARK  904  A    between atoms: _3099  and  _3100
REMARK  905  A    between atoms: _3100  and  _3101
REMARK  906  A    between atoms: _3100  and  _3103
REMARK  907  A    between atoms: _3103  and  _3104
REMARK  908  A    between atoms: _3110  and  _3111
REMARK  909  A    between atoms: _3111  and  _3112
REMARK  910  A    between atoms: _3111  and  _3114
REMARK  911  A    between atoms: _3114  and  _3115
REMARK  912  A    between atoms: _3115  and  _3116
REMARK  913  A    between atoms: _3127  and  _3128
REMARK  914  A    between atoms: _3128  and  _3129
REMARK  915  A    between atoms: _3128  and  _3131
REMARK  916  A    between atoms: _3131  and  _3132
REMARK  917  A    between atoms: _3147  and  _3148
REMARK  918  A    between atoms: _3148  and  _3149
REMARK  919  A    between atoms: _3148  and  _3151
REMARK  920  A    between atoms: _3151  and  _3152
REMARK  921  A    between atoms: _3151  and  _3153
REMARK  922  A    between atoms: _3152  and  _3154
REMARK  923  A    between atoms: _3166  and  _3167
REMARK  924  A    between atoms: _3167  and  _3168
REMARK  925  A    between atoms: _3173  and  _3174
REMARK  926  A    between atoms: _3174  and  _3175
REMARK  927  A    between atoms: _3174  and  _3177
REMARK  928  A    between atoms: _3177  and  _3178
REMARK  929  A    between atoms: _3183  and  _3184
REMARK  930  A    between atoms: _3195  and  _3196
REMARK  931  A    between atoms: _3208  and  _3209
REMARK  932  A    between atoms: _3209  and  _3210
REMARK  933  A    between atoms: _3209  and  _3212
REMARK  934  A    between atoms: _3212  and  _3213
REMARK  935  A    between atoms: _3212  and  _3214
REMARK  936  A    between atoms: _3213  and  _3215
REMARK  937  A    between atoms: _3227  and  _3228
REMARK  938  A    between atoms: _3228  and  _3229
REMARK  939  A    between atoms: _3228  and  _3231
REMARK  940  A    between atoms: _3231  and  _3232
REMARK  941  A    between atoms: _3231  and  _3233
REMARK  942  A    between atoms: _3241  and  _3242
REMARK  943  A    between atoms: _3242  and  _3243
REMARK  944  A    between atoms: _3242  and  _3245
REMARK  945  A    between atoms: _3245  and  _3246
REMARK  946  A    between atoms: _3246  and  _3247
REMARK  947  A    between atoms: _3246  and  _3248
REMARK  948  A    between atoms: _3260  and  _3261
REMARK  949  A    between atoms: _3261  and  _3262
REMARK  950  A    between atoms: _3261  and  _3264
REMARK  951  A    between atoms: _3264  and  _3265
REMARK  952  A    between atoms: _3280  and  _3281
REMARK  953  A    between atoms: _3281  and  _3282
REMARK  954  A    between atoms: _3281  and  _3284
REMARK  955  A    between atoms: _3284  and  _3285
REMARK  956  A    between atoms: _3284  and  _3286
REMARK  957  A    between atoms: _3296  and  _3297
REMARK  958  A    between atoms: _3297  and  _3298
REMARK  959  A    between atoms: _3297  and  _3300
REMARK  960  A    between atoms: _3300  and  _3301
REMARK  961  A    between atoms: _3301  and  _3302
REMARK                            x       y       z     vdW  Elec       q    Type
REMARK                         _______ _______ _______ _____ _____    ______ ____
ROOT
ATOM      1  CA  SER A  32       9.506  21.683  25.957  0.00  0.00    +0.184 C 
ENDROOT
BRANCH   1   2
ATOM      2  C   SER A  32       9.289  21.041  27.295  0.00  0.00    +0.236 C 
ATOM      3  O   SER A  32       8.308  21.348  27.971  0.00  0.00    -0.274 OA
ATOM      4  N   SER A  33      10.259  20.210  27.707  0.00  0.00    -0.300 N 
ATOM      5  H   SER A  33      11.034  19.915  27.122  0.00  0.00    +0.150 HD
BRANCH   4   6
ATOM      6  CA  SER A  33      10.319  19.628  29.053  0.00  0.00    +0.184 C 
BRANCH   6   7
ATOM      7  C   SER A  33      11.494  20.317  29.766  0.00  0.00    +0.236 C 
ATOM      8  O   SER A  33      12.056  19.759  30.702  0.00  0.00    -0.274 OA
ATOM      9  N   ALA A  34      11.821  21.564  29.358  0.00  0.00    -0.303 N 
ATOM     10  H   ALA A  34      11.274  22.123  28.713  0.00  0.00    +0.149 HD
BRANCH   9  11
ATOM     11  CA  ALA A  34      12.962  22.338  29.833  0.00  0.00    +0.156 C 
ATOM     12  CB  ALA A  34      12.830  22.653  31.326  0.00  0.00    +0.038 C 
BRANCH  11  13
ATOM     13  C   ALA A  34      14.245  21.557  29.495  0.00  0.00    +0.233 C 
ATOM     14  N   GLY A  35      15.299  21.670  30.288  0.00  0.00    -0.305 N 
ATOM     15  H   GLY A  35      15.353  22.205  31.149  0.00  0.00    +0.149 HD
ATOM     16  O   ALA A  34      14.279  20.891  28.459  0.00  0.00    -0.274 OA
BRANCH  14  17
ATOM     17  CA  GLY A  35      16.553  21.002  29.935  0.00  0.00    +0.200 C 
BRANCH  17  18
ATOM     18  C   GLY A  35      17.324  21.679  28.805  0.00  0.00    +0.231 C 
ATOM     19  N   GLY A  36      16.946  22.917  28.439  0.00  0.00    -0.305 N 
ATOM     20  H   GLY A  36      16.136  23.415  28.792  0.00  0.00    +0.149 HD
ATOM     21  O   GLY A  35      18.272  21.091  28.275  0.00  0.00    -0.274 OA
BRANCH  19  22
ATOM     22  CA  GLY A  36      17.683  23.732  27.480  0.00  0.00    +0.200 C 
BRANCH  22  23
ATOM     23  C   GLY A  36      17.221  23.729  26.038  0.00  0.00    +0.231 C 
ATOM     24  N   UNK A  37      16.207  22.913  25.685  0.00  0.00    -0.301 N 
ATOM     25  H   UNK A  37      15.731  22.267  26.306  0.00  0.00    +0.150 HD
ATOM     26  O   GLY A  36      17.762  24.488  25.245  0.00  0.00    -0.274 OA
BRANCH  24  27
ATOM     27  C   UNK A  37      15.706  22.868  24.307  0.00  0.00    +0.184 C 
BRANCH  27  28
ATOM     28  C   UNK A  37      14.194  22.806  24.194  0.00  0.00    +0.236 C 
ATOM     29  O   UNK A  37      13.493  22.404  25.118  0.00  0.00    -0.274 OA
ATOM     30  N   UNK A  37      13.710  23.114  23.006  0.00  0.00    -0.302 N 
ATOM     31  H   UNK A  37      14.279  23.485  22.250  0.00  0.00    +0.150 HD
BRANCH  30  32
ATOM     32  C   UNK A  37      12.289  22.970  22.663  0.00  0.00    +0.163 C 
BRANCH  32  33
ATOM     33  C   UNK A  37      12.176  22.454  21.237  0.00  0.00    +0.234 C 
ATOM     34  N   UNK A  37      10.991  21.963  20.872  0.00  0.00    -0.300 N 
ATOM     35  H   UNK A  37      10.189  21.865  21.486  0.00  0.00    +0.150 HD
ATOM     36  O   UNK A  37      13.146  22.532  20.477  0.00  0.00    -0.274 OA
BRANCH  34  37
ATOM     37  C   UNK A  37      10.759  21.521  19.497  0.00  0.00    +0.187 C 
BRANCH  37  38
ATOM     38  C   UNK A  37       9.606  22.267  18.889  0.00  0.00    +0.236 C 
ATOM     39  O   UNK A  37       8.716  22.721  19.604  0.00  0.00    -0.274 OA
ATOM     40  N   UNK A  37       9.610  22.350  17.553  0.00  0.00    -0.302 N 
ATOM     41  H   UNK A  37      10.389  22.058  16.972  0.00  0.00    +0.150 HD
BRANCH  40  42
ATOM     42  C   UNK A  37       8.499  22.894  16.785  0.00  0.00    +0.161 C 
BRANCH  42  43
ATOM     43  C   UNK A  37       8.238  21.952  15.593  0.00  0.00    +0.234 C 
ATOM     44  N   UNK A  37       6.968  21.652  15.367  0.00  0.00    -0.302 N 
ATOM     45  H   UNK A  37       6.204  21.914  15.981  0.00  0.00    +0.150 HD
ATOM     46  O   UNK A  37       9.177  21.526  14.887  0.00  0.00    -0.274 OA
BRANCH  44  47
ATOM     47  C   UNK A  37       6.529  20.884  14.187  0.00  0.00    +0.159 C 
BRANCH  47  48
ATOM     48  C   UNK A  37       5.203  21.445  13.712  0.00  0.00    +0.234 C 
ATOM     49  O   UNK A  37       4.471  22.046  14.497  0.00  0.00    -0.274 OA
ATOM     50  N   UNK A  37       4.877  21.220  12.428  0.00  0.00    -0.300 N 
ATOM     51  H   UNK A  37       5.513  20.824  11.743  0.00  0.00    +0.150 HD
BRANCH  50  52
ATOM     52  C   UNK A  37       3.542  21.548  11.909  0.00  0.00    +0.187 C 
BRANCH  52  53
ATOM     53  C   UNK A  37       2.613  20.542  12.578  0.00  0.00    +0.236 C 
ATOM     54  N   UNK A  37       1.476  20.977  13.130  0.00  0.00    -0.302 N 
ATOM     55  H   UNK A  37       1.135  21.931  13.063  0.00  0.00    +0.150 HD
ATOM     56  O   UNK A  37       2.958  19.378  12.657  0.00  0.00    -0.274 OA
BRANCH  54  57
ATOM     57  C   UNK A  37       0.593  20.077  13.860  0.00  0.00    +0.170 C 
BRANCH  57  58
ATOM     58  C   UNK A  37      -0.337  19.352  12.861  0.00  0.00    +0.235 C 
ATOM     59  N   UNK A  37      -0.449  18.015  12.952  0.00  0.00    -0.300 N 
ATOM     60  H   UNK A  37       0.063  17.454  13.625  0.00  0.00    +0.150 HD
ATOM     61  O   UNK A  37      -0.975  20.037  12.062  0.00  0.00    -0.274 OA
BRANCH  59  62
ATOM     62  C   UNK A  37      -1.331  17.213  12.095  0.00  0.00    +0.187 C 
BRANCH  62  63
ATOM     63  C   UNK A  37      -2.648  16.837  12.809  0.00  0.00    +0.236 C 
ATOM     64  N   UNK A  37      -2.847  17.338  14.031  0.00  0.00    -0.305 N 
ATOM     65  H   UNK A  37      -2.168  17.887  14.546  0.00  0.00    +0.149 HD
ATOM     66  O   UNK A  37      -3.465  16.118  12.238  0.00  0.00    -0.274 OA
BRANCH  64  67
ATOM     67  C   UNK A  37      -4.055  17.112  14.822  0.00  0.00    +0.200 C 
BRANCH  67  68
ATOM     68  C   UNK A  37      -5.267  17.869  14.311  0.00  0.00    +0.231 C 
ATOM     69  N   UNK A  37      -6.326  17.946  15.129  0.00  0.00    -0.303 N 
ATOM     70  H   UNK A  37      -6.352  17.552  16.065  0.00  0.00    +0.149 HD
ATOM     71  O   UNK A  37      -5.256  18.388  13.193  0.00  0.00    -0.274 OA
BRANCH  69  72
ATOM     72  C   UNK A  37      -7.552  18.634  14.719  0.00  0.00    +0.160 C 
BRANCH  72  73
ATOM     73  C   UNK A  37      -7.271  20.130  14.513  0.00  0.00    +0.237 C 
ATOM     74  O   UNK A  37      -6.711  20.749  15.420  0.00  0.00    -0.274 OA
ATOM     75  N   UNK A  37      -7.633  20.725  13.351  0.00  0.00    -0.288 N 
ATOM     76  C   UNK A  37      -7.418  22.170  13.178  0.00  0.00    +0.162 C 
ATOM     77  C   UNK A  37      -7.855  22.444  11.732  0.00  0.00    +0.033 C 
ATOM     78  C   UNK A  37      -8.682  21.304  11.346  0.00  0.00    +0.021 C 
ATOM     79  C   UNK A  37      -8.290  20.131  12.168  0.00  0.00    +0.109 C 
BRANCH  76  80
ATOM     80  C   UNK A  37      -8.232  22.961  14.198  0.00  0.00    +0.234 C 
ATOM     81  N   UNK A  37      -7.634  24.019  14.752  0.00  0.00    -0.302 N 
ATOM     82  H   UNK A  37      -6.709  24.338  14.483  0.00  0.00    +0.150 HD
ATOM     83  O   UNK A  37      -9.367  22.580  14.515  0.00  0.00    -0.274 OA
BRANCH  81  84
ATOM     84  C   UNK A  37      -8.274  24.827  15.784  0.00  0.00    +0.160 C 
BRANCH  84  85
ATOM     85  C   UNK A  37      -8.929  26.127  15.296  0.00  0.00    +0.234 C 
ATOM     86  O   UNK A  37      -9.622  26.755  16.080  0.00  0.00    -0.274 OA
ATOM     87  N   UNK A  37      -8.701  26.536  14.061  0.00  0.00    -0.305 N 
ATOM     88  H   UNK A  37      -8.096  26.070  13.392  0.00  0.00    +0.149 HD
BRANCH  87  89
ATOM     89  C   UNK A  37      -9.292  27.765  13.539  0.00  0.00    +0.200 C 
BRANCH  89  90
ATOM     90  C   UNK A  37      -8.372  28.939  13.787  0.00  0.00    +0.231 C 
ATOM     91  N   UNK A  37      -8.235  29.331  15.058  0.00  0.00    -0.303 N 
ATOM     92  H   UNK A  37      -8.742  28.911  15.830  0.00  0.00    +0.149 HD
ATOM     93  O   UNK A  37      -7.770  29.471  12.857  0.00  0.00    -0.274 OA
BRANCH  91  94
ATOM     94  C   UNK A  37      -7.346  30.433  15.445  0.00  0.00    +0.159 C 
BRANCH  94  95
ATOM     95  C   UNK A  37      -7.218  30.428  16.976  0.00  0.00    +0.234 C 
ATOM     96  O   UNK A  37      -8.225  30.254  17.675  0.00  0.00    -0.274 OA
ATOM     97  N   UNK A  37      -6.022  30.713  17.457  0.00  0.00    -0.305 N 
ATOM     98  H   UNK A  37      -5.195  30.850  16.884  0.00  0.00    +0.149 HD
BRANCH  97  99
ATOM     99  C   UNK A  37      -5.751  30.857  18.882  0.00  0.00    +0.200 C 
BRANCH  99 100
ATOM    100  C   UNK A  37      -4.634  29.961  19.354  0.00  0.00    +0.231 C 
ATOM    101  N   UNK A  37      -4.626  29.700  20.658  0.00  0.00    -0.301 N 
ATOM    102  H   UNK A  37      -5.358  29.995  21.296  0.00  0.00    +0.150 HD
ATOM    103  O   UNK A  37      -3.789  29.541  18.552  0.00  0.00    -0.274 OA
BRANCH 101 104
ATOM    104  C   UNK A  37      -3.548  28.945  21.317  0.00  0.00    +0.187 C 
BRANCH 104 105
ATOM    105  C   UNK A  37      -4.113  28.047  22.386  0.00  0.00    +0.236 C 
ATOM    106  O   UNK A  37      -4.970  28.470  23.177  0.00  0.00    -0.274 OA
ATOM    107  N   UNK A  37      -3.578  26.825  22.447  0.00  0.00    -0.302 N 
ATOM    108  H   UNK A  37      -2.889  26.486  21.783  0.00  0.00    +0.150 HD
BRANCH 107 109
ATOM    109  C   UNK A  37      -3.910  25.829  23.452  0.00  0.00    +0.159 C 
BRANCH 109 110
ATOM    110  C   UNK A  37      -2.601  25.513  24.181  0.00  0.00    +0.234 C 
ATOM    111  N   UNK A  37      -2.568  25.653  25.501  0.00  0.00    -0.302 N 
ATOM    112  H   UNK A  37      -3.360  25.982  26.045  0.00  0.00    +0.150 HD
ATOM    113  O   UNK A  37      -1.640  25.142  23.524  0.00  0.00    -0.274 OA
BRANCH 111 114
ATOM    114  C   UNK A  37      -1.402  25.349  26.328  0.00  0.00    +0.161 C 
BRANCH 114 115
ATOM    115  C   UNK A  37      -1.784  24.125  27.133  0.00  0.00    +0.234 C 
ATOM    116  O   UNK A  37      -2.696  24.216  27.957  0.00  0.00    -0.274 OA
ATOM    117  N   UNK A  37      -1.050  23.009  26.955  0.00  0.00    -0.302 N 
ATOM    118  H   UNK A  37      -0.244  22.955  26.340  0.00  0.00    +0.150 HD
BRANCH 117 119
ATOM    119  C   UNK A  37      -1.298  21.752  27.646  0.00  0.00    +0.162 C 
BRANCH 119 120
ATOM    120  C   UNK A  37      -0.197  21.577  28.673  0.00  0.00    +0.234 C 
ATOM    121  N   UNK A  37      -0.554  21.652  29.946  0.00  0.00    -0.302 N 
ATOM    122  H   UNK A  37      -1.504  21.820  30.262  0.00  0.00    +0.150 HD
ATOM    123  O   UNK A  37       0.957  21.358  28.291  0.00  0.00    -0.274 OA
BRANCH 121 124
ATOM    124  C   UNK A  37       0.392  21.474  31.048  0.00  0.00    +0.159 C 
BRANCH 124 125
ATOM    125  C   UNK A  37       0.348  20.008  31.458  0.00  0.00    +0.234 C 
ATOM    126  O   UNK A  37      -0.678  19.537  31.949  0.00  0.00    -0.274 OA
ATOM    127  N   UNK A  37       1.446  19.306  31.272  0.00  0.00    -0.302 N 
ATOM    128  H   UNK A  37       2.269  19.667  30.799  0.00  0.00    +0.150 HD
BRANCH 127 129
ATOM    129  C   UNK A  37       1.601  17.917  31.729  0.00  0.00    +0.165 C 
BRANCH 129 130
ATOM    130  C   UNK A  37       2.124  18.049  33.170  0.00  0.00    +0.234 C 
ATOM    131  N   UNK A  37       1.207  17.943  34.141  0.00  0.00    -0.302 N 
ATOM    132  H   UNK A  37       0.248  17.651  33.984  0.00  0.00    +0.150 HD
ATOM    133  O   UNK A  37       3.304  18.332  33.398  0.00  0.00    -0.274 OA
BRANCH 131 134
ATOM    134  C   UNK A  37       1.536  18.221  35.540  0.00  0.00    +0.159 C 
BRANCH 134 135
ATOM    135  C   UNK A  37       2.469  17.217  36.214  0.00  0.00    +0.234 C 
ATOM    136  N   UNK A  37       3.297  17.724  37.139  0.00  0.00    -0.302 N 
ATOM    137  H   UNK A  37       3.388  18.718  37.328  0.00  0.00    +0.150 HD
ATOM    138  O   UNK A  37       2.450  16.024  35.911  0.00  0.00    -0.274 OA
BRANCH 136 139
ATOM    139  C   UNK A  37       4.145  16.896  37.976  0.00  0.00    +0.159 C 
BRANCH 139 140
ATOM    140  C   UNK A  37       3.218  16.084  38.899  0.00  0.00    +0.234 C 
ATOM    141  N   UNK A  37       3.696  14.915  39.311  0.00  0.00    -0.302 N 
ATOM    142  H   UNK A  37       4.647  14.617  39.122  0.00  0.00    +0.150 HD
ATOM    143  O   UNK A  37       2.096  16.509  39.235  0.00  0.00    -0.274 OA
BRANCH 141 144
ATOM    144  C   UNK A  37       2.917  13.981  40.128  0.00  0.00    +0.159 C 
BRANCH 144 145
ATOM    145  C   UNK A  37       2.353  14.580  41.437  0.00  0.00    +0.234 C 
ATOM    146  N   UNK A  37       3.108  15.474  42.086  0.00  0.00    -0.302 N 
ATOM    147  H   UNK A  37       4.020  15.765  41.750  0.00  0.00    +0.150 HD
ATOM    148  O   UNK A  37       1.248  14.228  41.841  0.00  0.00    -0.274 OA
BRANCH 146 149
ATOM    149  C   UNK A  37       2.694  16.128  43.342  0.00  0.00    +0.170 C 
BRANCH 149 150
ATOM    150  C   UNK A  37       1.903  17.442  43.127  0.00  0.00    +0.234 C 
ATOM    151  O   UNK A  37       1.613  18.143  44.102  0.00  0.00    -0.274 OA
ATOM    152  N   UNK A  37       1.525  17.761  41.874  0.00  0.00    -0.302 N 
ATOM    153  H   UNK A  37       1.692  17.202  41.044  0.00  0.00    +0.150 HD
BRANCH 152 154
ATOM    154  C   UNK A  37       0.820  19.012  41.558  0.00  0.00    +0.159 C 
BRANCH 154 155
ATOM    155  C   UNK A  37      -0.581  18.791  40.980  0.00  0.00    +0.234 C 
ATOM    156  N   UNK A  37      -1.237  17.668  41.351  0.00  0.00    -0.300 N 
ATOM    157  H   UNK A  37      -0.866  16.987  42.006  0.00  0.00    +0.150 HD
ATOM    158  O   UNK A  37      -1.116  19.700  40.341  0.00  0.00    -0.274 OA
BRANCH 156 159
ATOM    159  C   UNK A  37      -2.580  17.346  40.881  0.00  0.00    +0.187 C 
BRANCH 159 160
ATOM    160  C   UNK A  37      -3.675  18.181  41.510  0.00  0.00    +0.236 C 
ATOM    161  N   UNK A  37      -3.392  19.002  42.566  0.00  0.00    -0.302 N 
ATOM    162  H   UNK A  37      -2.507  19.041  43.060  0.00  0.00    +0.150 HD
ATOM    163  O   UNK A  37      -4.807  18.089  41.032  0.00  0.00    -0.274 OA
BRANCH 161 164
ATOM    164  C   UNK A  37      -4.428  19.891  43.129  0.00  0.00    +0.159 C 
BRANCH 164 165
ATOM    165  C   UNK A  37      -4.978  20.853  42.044  0.00  0.00    +0.234 C 
ATOM    166  O   UNK A  37      -6.132  21.248  42.122  0.00  0.00    -0.274 OA
ATOM    167  N   UNK A  37      -4.164  21.183  41.016  0.00  0.00    -0.302 N 
ATOM    168  H   UNK A  37      -3.226  20.817  40.885  0.00  0.00    +0.150 HD
BRANCH 167 169
ATOM    169  C   UNK A  37      -4.570  22.112  39.941  0.00  0.00    +0.163 C 
BRANCH 169 170
ATOM    170  C   UNK A  37      -5.525  21.481  38.919  0.00  0.00    +0.234 C 
ATOM    171  N   UNK A  37      -5.900  20.195  39.124  0.00  0.00    -0.309 N 
ATOM    172  H   UNK A  37      -5.464  19.564  39.787  0.00  0.00    +0.149 HD
ATOM    173  O   UNK A  37      -5.966  22.177  37.999  0.00  0.00    -0.274 OA
BRANCH 171 174
ATOM    174  C   UNK A  37      -6.936  19.510  38.354  0.00  0.00    +0.093 C 
BRANCH 174 175
ATOM    175  C   UNK A  37      -6.495  18.063  38.063  0.00  0.00    +0.027 C 
BRANCH 175 176
ATOM    176  C   UNK A  37      -5.152  17.944  37.342  0.00  0.00    -0.015 C 
ATOM    177  C   UNK A  37      -4.792  16.507  37.086  0.00  0.00    +0.007 C 
ATOM    178  C   UNK A  37      -5.154  18.736  36.037  0.00  0.00    +0.007 C 
ENDBRANCH 175 176
ENDBRANCH 174 175
ENDBRANCH 171 174
ENDBRANCH 169 170
BRANCH 169 179
ATOM    179  C   UNK A  37      -3.354  22.746  39.279  0.00  0.00    +0.067 C 
BRANCH 179 180
ATOM    180  C   UNK A  37      -2.534  23.499  40.313  0.00  0.00    -0.045 A 
ATOM    181  C   UNK A  37      -3.070  24.595  40.989  0.00  0.00    +0.007 A 
ATOM    182  C   UNK A  37      -2.367  25.239  42.003  0.00  0.00    +0.045 A 
ATOM    183  C   UNK A  37      -1.150  24.733  42.426  0.00  0.00    +0.117 A 
ATOM    184  C   UNK A  37      -0.643  23.591  41.839  0.00  0.00    +0.045 A 
ATOM    185  C   UNK A  37      -1.333  22.984  40.782  0.00  0.00    +0.007 A 
BRANCH 183 186
ATOM    186  O   UNK A  37      -0.476  25.373  43.444  0.00  0.00    -0.507 OA
ATOM    187  H   UNK A  37       0.140  24.749  43.910  0.00  0.00    +0.292 HD
ENDBRANCH 183 186
ENDBRANCH 179 180
ENDBRANCH 169 179
ENDBRANCH 167 169
ENDBRANCH 164 165
BRANCH 164 188
ATOM    188  C   UNK A  37      -3.884  20.734  44.287  0.00  0.00    +0.043 C 
BRANCH 188 189
ATOM    189  C   UNK A  37      -2.849  21.769  43.859  0.00  0.00    +0.127 C 
BRANCH 189 190
ATOM    190  C   UNK A  37      -2.141  22.377  45.045  0.00  0.00    +0.356 C 
ATOM    191  O   UNK A  37      -2.598  23.433  45.537  0.00  0.00    -0.246 OA
ATOM    192  O   UNK A  37      -1.166  21.759  45.521  0.00  0.00    -0.246 OA
ENDBRANCH 189 190
ENDBRANCH 188 189
ENDBRANCH 164 188
ENDBRANCH 161 164
ENDBRANCH 159 160
BRANCH 159 193
ATOM    193  C   UNK A  37      -2.900  15.853  41.051  0.00  0.00    +0.141 C 
ATOM    194  C   UNK A  37      -1.921  14.959  40.318  0.00  0.00    +0.040 C 
BRANCH 193 195
ATOM    195  O   UNK A  37      -2.947  15.554  42.442  0.00  0.00    -0.390 OA
ATOM    196  H   UNK A  37      -2.940  14.572  42.588  0.00  0.00    +0.210 HD
ENDBRANCH 193 195
ENDBRANCH 159 193
ENDBRANCH 156 159
ENDBRANCH 154 155
BRANCH 154 197
ATOM    197  C   UNK A  37       1.687  19.846  40.594  0.00  0.00    +0.041 C 
BRANCH 197 198
ATOM    198  C   UNK A  37       3.086  20.140  41.146  0.00  0.00    +0.098 C 
BRANCH 198 199
ATOM    199  C   UNK A  37       3.054  20.918  42.440  0.00  0.00    +0.211 C 
ATOM    200  N   UNK A  37       4.055  20.713  43.303  0.00  0.00    -0.329 N 
ATOM    201  H   UNK A  37       4.073  21.215  44.185  0.00  0.00    +0.145 HD
ATOM    202  H   UNK A  37       4.817  20.085  43.071  0.00  0.00    +0.145 HD
ATOM    203  O   UNK A  37       2.147  21.723  42.680  0.00  0.00    -0.276 OA
ENDBRANCH 198 199
ENDBRANCH 197 198
ENDBRANCH 154 197
ENDBRANCH 152 154
ENDBRANCH 149 150
BRANCH 149 204
ATOM    204  C   UNK A  37       3.927  16.400  44.228  0.00  0.00    +0.156 C 
BRANCH 204 205
ATOM    205  C   UNK A  37       4.962  17.336  43.626  0.00  0.00    +0.358 C 
ATOM    206  O   UNK A  37       5.701  17.988  44.407  0.00  0.00    -0.246 OA
ATOM    207  O   UNK A  37       5.081  17.371  42.375  0.00  0.00    -0.246 OA
ENDBRANCH 204 205
ENDBRANCH 149 204
ENDBRANCH 146 149
ENDBRANCH 144 145
BRANCH 144 208
ATOM    208  C   UNK A  37       3.776  12.744  40.421  0.00  0.00    +0.043 C 
BRANCH 208 209
ATOM    209  C   UNK A  37       2.989  11.514  40.815  0.00  0.00    +0.127 C 
BRANCH 209 210
ATOM    210  C   UNK A  37       3.848  10.262  40.828  0.00  0.00    +0.356 C 
ATOM    211  O   UNK A  37       4.055   9.695  41.926  0.00  0.00    -0.246 OA
ATOM    212  O   UNK A  37       4.350   9.873  39.747  0.00  0.00    -0.246 OA
ENDBRANCH 209 210
ENDBRANCH 208 209
ENDBRANCH 144 208
ENDBRANCH 141 144
ENDBRANCH 139 140
BRANCH 139 213
ATOM    213  C   UNK A  37       5.135  17.754  38.816  0.00  0.00    +0.032 C 
BRANCH 213 214
ATOM    214  C   UNK A  37       6.189  18.497  38.008  0.00  0.00    +0.000 C 
BRANCH 214 215
ATOM    215  C   UNK A  37       6.887  19.616  38.836  0.00  0.00    -0.019 C 
BRANCH 215 216
ATOM    216  C   UNK A  37       7.771  20.486  37.976  0.00  0.00    -0.086 C 
BRANCH 216 217
ATOM    217  N   UNK A  37       8.459  21.568  38.744  0.00  0.00    +0.378 N 
ATOM    218  H   UNK A  37       7.816  21.992  39.405  0.00  0.00    -0.090 HD
ATOM    219  H   UNK A  37       9.249  21.182  39.253  0.00  0.00    -0.090 HD
ATOM    220  H   UNK A  37       8.804  22.280  38.109  0.00  0.00    -0.090 HD
ENDBRANCH 216 217
ENDBRANCH 215 216
ENDBRANCH 214 215
ENDBRANCH 213 214
ENDBRANCH 139 213
ENDBRANCH 136 139
ENDBRANCH 134 135
BRANCH 134 221
ATOM    221  C   UNK A  37       0.260  18.375  36.369  0.00  0.00    +0.034 C 
BRANCH 221 222
ATOM    222  C   UNK A  37      -0.750  19.441  35.919  0.00  0.00    -0.015 C 
ATOM    223  C   UNK A  37      -1.925  19.455  36.829  0.00  0.00    +0.007 C 
ATOM    224  C   UNK A  37      -0.118  20.844  35.869  0.00  0.00    +0.007 C 
ENDBRANCH 221 222
ENDBRANCH 134 221
ENDBRANCH 131 134
ENDBRANCH 129 130
BRANCH 129 225
ATOM    225  C   UNK A  37       2.556  17.146  30.819  0.00  0.00    +0.088 C 
BRANCH 225 226
ATOM    226  C   UNK A  37       2.148  17.172  29.372  0.00  0.00    +0.061 A 
ATOM    227  N   UNK A  37       1.366  16.172  28.828  0.00  0.00    -0.241 NA
ATOM    228  C   UNK A  37       1.179  16.504  27.559  0.00  0.00    +0.196 A 
ATOM    229  N   UNK A  37       1.780  17.652  27.266  0.00  0.00    -0.351 N 
ATOM    230  H   UNK A  37       1.795  18.113  26.363  0.00  0.00    +0.166 HD
ATOM    231  C   UNK A  37       2.379  18.104  28.415  0.00  0.00    +0.107 A 
ENDBRANCH 225 226
ENDBRANCH 129 225
ENDBRANCH 127 129
ENDBRANCH 124 125
BRANCH 124 232
ATOM    232  C   UNK A  37       0.007  22.345  32.242  0.00  0.00    +0.034 C 
BRANCH 232 233
ATOM    233  C   UNK A  37      -0.176  23.846  31.980  0.00  0.00    -0.015 C 
ATOM    234  C   UNK A  37      -0.550  24.564  33.287  0.00  0.00    +0.007 C 
ATOM    235  C   UNK A  37       1.101  24.423  31.388  0.00  0.00    +0.007 C 
ENDBRANCH 232 233
ENDBRANCH 124 232
ENDBRANCH 121 124
ENDBRANCH 119 120
BRANCH 119 236
ATOM    236  C   UNK A  37      -1.305  20.552  26.663  0.00  0.00    +0.015 C 
ATOM    237  C   UNK A  37      -1.649  19.257  27.425  0.00  0.00    +0.010 C 
BRANCH 236 238
ATOM    238  C   UNK A  37      -2.230  20.820  25.438  0.00  0.00    +0.002 C 
ATOM    239  C   UNK A  37      -2.289  19.733  24.373  0.00  0.00    +0.004 C 
ENDBRANCH 236 238
ENDBRANCH 119 236
ENDBRANCH 117 119
ENDBRANCH 114 115
BRANCH 114 240
ATOM    240  C   UNK A  37      -1.010  26.527  27.255  0.00  0.00    +0.012 C 
ATOM    241  C   UNK A  37       0.171  26.160  28.142  0.00  0.00    +0.009 C 
ATOM    242  C   UNK A  37      -0.703  27.777  26.442  0.00  0.00    +0.009 C 
ENDBRANCH 114 240
ENDBRANCH 111 114
ENDBRANCH 109 110
BRANCH 109 243
ATOM    243  C   UNK A  37      -4.443  24.558  22.771  0.00  0.00    +0.032 C 
BRANCH 243 244
ATOM    244  C   UNK A  37      -4.691  23.387  23.705  0.00  0.00    +0.000 C 
BRANCH 244 245
ATOM    245  C   UNK A  37      -5.116  22.133  22.963  0.00  0.00    -0.019 C 
BRANCH 245 246
ATOM    246  C   UNK A  37      -6.486  22.200  22.361  0.00  0.00    -0.086 C 
BRANCH 246 247
ATOM    247  N   UNK A  37      -6.890  20.870  21.801  0.00  0.00    +0.378 N 
ATOM    248  H   UNK A  37      -6.824  20.153  22.517  0.00  0.00    -0.090 HD
ATOM    249  H   UNK A  37      -7.846  20.912  21.463  0.00  0.00    -0.090 HD
ATOM    250  H   UNK A  37      -6.279  20.620  21.030  0.00  0.00    -0.090 HD
ENDBRANCH 246 247
ENDBRANCH 245 246
ENDBRANCH 244 245
ENDBRANCH 243 244
ENDBRANCH 109 243
ENDBRANCH 107 109
ENDBRANCH 104 105
BRANCH 104 251
ATOM    251  C   UNK A  37      -2.511  29.926  21.935  0.00  0.00    +0.141 C 
ATOM    252  C   UNK A  37      -1.356  29.206  22.693  0.00  0.00    +0.040 C 
BRANCH 251 253
ATOM    253  O   UNK A  37      -1.941  30.723  20.903  0.00  0.00    -0.390 OA
ATOM    254  H   UNK A  37      -2.248  31.662  20.999  0.00  0.00    +0.210 HD
ENDBRANCH 251 253
ENDBRANCH 104 251
ENDBRANCH 101 104
ENDBRANCH  99 100
ENDBRANCH  97  99
ENDBRANCH  94  95
BRANCH  94 255
ATOM    255  C   UNK A  37      -7.911  31.803  14.986  0.00  0.00    +0.035 C 
BRANCH 255 256
ATOM    256  C   UNK A  37      -6.930  32.963  15.143  0.00  0.00    +0.039 C 
BRANCH 256 257
ATOM    257  C   UNK A  37      -7.559  34.356  15.223  0.00  0.00    +0.196 C 
BRANCH 257 258
ATOM    258  N   UNK A  37      -8.579  34.450  16.266  0.00  0.00    -0.279 N 
ATOM    259  H   UNK A  37      -8.248  34.472  17.225  0.00  0.00    +0.258 HD
ATOM    260  C   UNK A  37      -9.898  34.480  16.071  0.00  0.00    +0.341 C 
ATOM    261  N   UNK A  37     -10.724  34.558  17.102  0.00  0.00    -0.292 N 
ATOM    262  H   UNK A  37     -10.365  34.588  18.051  0.00  0.00    +0.255 HD
ATOM    263  H   UNK A  37     -11.727  34.593  16.957  0.00  0.00    +0.255 HD
ATOM    264  N   UNK A  37     -10.399  34.456  14.841  0.00  0.00    -0.292 N 
ATOM    265  H   UNK A  37     -11.406  34.488  14.722  0.00  0.00    +0.255 HD
ATOM    266  H   UNK A  37      -9.826  34.384  14.007  0.00  0.00    +0.255 HD
ENDBRANCH 257 258
ENDBRANCH 256 257
ENDBRANCH 255 256
ENDBRANCH  94 255
ENDBRANCH  91  94
ENDBRANCH  89  90
ENDBRANCH  87  89
ENDBRANCH  84  85
BRANCH  84 267
ATOM    267  C   UNK A  37      -7.285  25.123  16.920  0.00  0.00    +0.042 C 
BRANCH 267 268
ATOM    268  C   UNK A  37      -6.217  26.144  16.588  0.00  0.00    +0.071 C 
BRANCH 268 269
ATOM    269  S   UNK A  37      -4.777  25.937  17.690  0.00  0.00    -0.164 S 
ATOM    270  C   UNK A  37      -5.530  26.151  19.208  0.00  0.00    +0.084 C 
ENDBRANCH 268 269
ENDBRANCH 267 268
ENDBRANCH  84 267
ENDBRANCH  81  84
ENDBRANCH  76  80
ENDBRANCH  72  73
BRANCH  72 271
ATOM    271  C   UNK A  37      -8.663  18.477  15.780  0.00  0.00    +0.043 C 
BRANCH 271 272
ATOM    272  C   UNK A  37      -9.246  17.070  15.888  0.00  0.00    +0.127 C 
BRANCH 272 273
ATOM    273  C   UNK A  37     -10.140  16.608  14.749  0.00  0.00    +0.356 C 
ATOM    274  O   UNK A  37     -10.552  15.425  14.773  0.00  0.00    -0.246 OA
ATOM    275  O   UNK A  37     -10.430  17.416  13.836  0.00  0.00    -0.246 OA
ENDBRANCH 272 273
ENDBRANCH 271 272
ENDBRANCH  72 271
ENDBRANCH  69  72
ENDBRANCH  67  68
ENDBRANCH  64  67
ENDBRANCH  62  63
BRANCH  62 276
ATOM    276  C   UNK A  37      -0.580  15.976  11.590  0.00  0.00    +0.141 C 
ATOM    277  C   UNK A  37       0.570  16.340  10.666  0.00  0.00    +0.040 C 
BRANCH 276 278
ATOM    278  O   UNK A  37      -0.096  15.232  12.710  0.00  0.00    -0.390 OA
ATOM    279  H   UNK A  37       0.454  14.466  12.400  0.00  0.00    +0.210 HD
ENDBRANCH 276 278
ENDBRANCH  62 276
ENDBRANCH  59  62
ENDBRANCH  57  58
BRANCH  57 280
ATOM    280  C   UNK A  37      -0.254  20.870  14.876  0.00  0.00    +0.156 C 
BRANCH 280 281
ATOM    281  C   UNK A  37      -1.097  20.015  15.811  0.00  0.00    +0.358 C 
ATOM    282  O   UNK A  37      -2.204  20.446  16.174  0.00  0.00    -0.246 OA
ATOM    283  O   UNK A  37      -0.671  18.894  16.140  0.00  0.00    -0.246 OA
ENDBRANCH 280 281
ENDBRANCH  57 280
ENDBRANCH  54  57
ENDBRANCH  52  53
BRANCH  52 284
ATOM    284  C   UNK A  37       3.515  21.464  10.366  0.00  0.00    +0.141 C 
ATOM    285  C   UNK A  37       2.120  21.752   9.796  0.00  0.00    +0.040 C 
BRANCH 284 286
ATOM    286  O   UNK A  37       4.429  22.435   9.853  0.00  0.00    -0.390 OA
ATOM    287  H   UNK A  37       5.329  22.033   9.733  0.00  0.00    +0.210 HD
ENDBRANCH 284 286
ENDBRANCH  52 284
ENDBRANCH  50  52
ENDBRANCH  47  48
BRANCH  47 288
ATOM    288  C   UNK A  37       6.375  19.385  14.504  0.00  0.00    +0.035 C 
BRANCH 288 289
ATOM    289  C   UNK A  37       5.292  19.053  15.533  0.00  0.00    +0.039 C 
BRANCH 289 290
ATOM    290  C   UNK A  37       5.479  17.698  16.202  0.00  0.00    +0.196 C 
BRANCH 290 291
ATOM    291  N   UNK A  37       6.551  17.730  17.212  0.00  0.00    -0.279 N 
ATOM    292  C   UNK A  37       7.020  16.669  17.869  0.00  0.00    +0.341 C 
ATOM    293  N   UNK A  37       7.994  16.808  18.758  0.00  0.00    -0.292 N 
ATOM    294  H   UNK A  37       8.352  15.999  19.255  0.00  0.00    +0.255 HD
ATOM    295  H   UNK A  37       8.402  17.720  18.935  0.00  0.00    +0.255 HD
ATOM    296  N   UNK A  37       6.517  15.457  17.641  0.00  0.00    -0.292 N 
ATOM    297  H   UNK A  37       6.881  14.663  18.158  0.00  0.00    +0.255 HD
ATOM    298  H   UNK A  37       5.767  15.299  16.976  0.00  0.00    +0.255 HD
ATOM    299  H   UNK A  37       6.976  18.629  17.415  0.00  0.00    +0.258 HD
ENDBRANCH 290 291
ENDBRANCH 289 290
ENDBRANCH 288 289
ENDBRANCH  47 288
ENDBRANCH  44  47
ENDBRANCH  42  43
BRANCH  42 300
ATOM    300  C   UNK A  37       8.729  24.348  16.310  0.00  0.00    +0.012 C 
ATOM    301  C   UNK A  37       8.979  25.298  17.491  0.00  0.00    +0.009 C 
ATOM    302  C   UNK A  37       7.570  24.839  15.425  0.00  0.00    +0.009 C 
ENDBRANCH  42 300
ENDBRANCH  40  42
ENDBRANCH  37  38
BRANCH  37 303
ATOM    303  C   UNK A  37      10.453  20.041  19.419  0.00  0.00    +0.141 C 
ATOM    304  C   UNK A  37      11.629  19.164  19.909  0.00  0.00    +0.040 C 
BRANCH 303 305
ATOM    305  O   UNK A  37       9.252  19.732  20.146  0.00  0.00    -0.390 OA
ATOM    306  H   UNK A  37       8.454  19.823  19.562  0.00  0.00    +0.210 HD
ENDBRANCH 303 305
ENDBRANCH  37 303
ENDBRANCH  34  37
ENDBRANCH  32  33
BRANCH  32 307
ATOM    307  C   UNK A  37      11.518  24.297  22.791  0.00  0.00    +0.067 C 
BRANCH 307 308
ATOM    308  C   UNK A  37      11.997  25.413  21.903  0.00  0.00    -0.045 A 
ATOM    309  C   UNK A  37      12.977  26.294  22.341  0.00  0.00    +0.004 A 
ATOM    310  C   UNK A  37      13.390  27.363  21.541  0.00  0.00    +0.000 A 
ATOM    311  C   UNK A  37      12.813  27.557  20.296  0.00  0.00    +0.000 A 
ATOM    312  C   UNK A  37      11.802  26.719  19.868  0.00  0.00    +0.000 A 
ATOM    313  C   UNK A  37      11.394  25.653  20.671  0.00  0.00    +0.004 A 
ENDBRANCH 307 308
ENDBRANCH  32 307
ENDBRANCH  30  32
ENDBRANCH  27  28
BRANCH  27 314
ATOM    314  C   UNK A  37      16.313  21.672  23.569  0.00  0.00    +0.187 C 
BRANCH 314 315
ATOM    315  O   UNK A  37      15.926  20.461  24.179  0.00  0.00    -0.393 OA
ATOM    316  H   UNK A  37      15.501  19.871  23.503  0.00  0.00    +0.209 HD
ENDBRANCH 314 315
ENDBRANCH  27 314
ENDBRANCH  24  27
ENDBRANCH  22  23
ENDBRANCH  19  22
ENDBRANCH  17  18
ENDBRANCH  14  17
ENDBRANCH  11  13
ENDBRANCH   9  11
ENDBRANCH   6   7
BRANCH   6 317
ATOM    317  CB  SER A  33      10.527  18.115  28.970  0.00  0.00    +0.187 C 
BRANCH 317 318
ATOM    318  OG  SER A  33       9.357  17.505  28.457  0.00  0.00    -0.393 OA
ATOM    319  H   SER A  33       9.594  16.823  27.776  0.00  0.00    +0.209 HD
ENDBRANCH 317 318
ENDBRANCH   6 317
ENDBRANCH   4   6
ENDBRANCH   1   2
BRANCH   1 321
ATOM    320  C   GLU A  31       8.265  21.692  23.857  0.00  0.00    +0.234 C 
ATOM    321  N   SER A  32       8.266  21.698  25.193  0.00  0.00    -0.301 N 
ATOM    322  H   SER A  32       7.429  21.705  25.766  0.00  0.00    +0.150 HD
ATOM    323  O   GLU A  31       9.293  21.761  23.166  0.00  0.00    -0.274 OA
BRANCH 320 324
ATOM    324  CA  GLU A  31       6.917  21.593  23.189  0.00  0.00    +0.159 C 
BRANCH 324 327
ATOM    325  C   TRP A  30       5.689  22.903  21.535  0.00  0.00    +0.234 C 
ATOM    326  O   TRP A  30       4.610  22.687  22.095  0.00  0.00    -0.274 OA
ATOM    327  N   GLU A  31       6.853  22.422  22.000  0.00  0.00    -0.302 N 
ATOM    328  H   GLU A  31       7.755  22.607  21.571  0.00  0.00    +0.150 HD
BRANCH 325 329
ATOM    329  CA  TRP A  30       5.724  23.762  20.279  0.00  0.00    +0.163 C 
BRANCH 329 331
ATOM    330  C   ALA A  29       4.372  22.685  18.469  0.00  0.00    +0.234 C 
ATOM    331  N   TRP A  30       4.470  23.449  19.560  0.00  0.00    -0.302 N 
ATOM    332  H   TRP A  30       3.667  23.892  19.994  0.00  0.00    +0.150 HD
ATOM    333  O   ALA A  29       5.351  22.320  17.796  0.00  0.00    -0.274 OA
BRANCH 330 334
ATOM    334  CA  ALA A  29       2.948  22.421  17.963  0.00  0.00    +0.156 C 
ATOM    335  CB  ALA A  29       2.647  20.928  17.922  0.00  0.00    +0.038 C 
BRANCH 334 338
ATOM    336  C   TYR A  28       1.987  23.941  16.310  0.00  0.00    +0.234 C 
ATOM    337  O   TYR A  28       1.156  24.377  17.085  0.00  0.00    -0.274 OA
ATOM    338  N   ALA A  29       2.870  23.010  16.637  0.00  0.00    -0.303 N 
ATOM    339  H   ALA A  29       3.572  22.651  15.998  0.00  0.00    +0.149 HD
BRANCH 336 340
ATOM    340  CA  TYR A  28       2.123  24.506  14.913  0.00  0.00    +0.163 C 
BRANCH 340 342
ATOM    341  C   GLN A  27       0.291  24.656  13.261  0.00  0.00    +0.234 C 
ATOM    342  N   TYR A  28       0.858  25.067  14.415  0.00  0.00    -0.302 N 
ATOM    343  H   TYR A  28       0.473  25.792  15.012  0.00  0.00    +0.150 HD
ATOM    344  O   GLN A  27       0.794  23.798  12.517  0.00  0.00    -0.274 OA
BRANCH 341 345
ATOM    345  CA  GLN A  27      -1.015  25.327  12.849  0.00  0.00    +0.159 C 
BRANCH 345 348
ATOM    346  C   GLU A  26      -0.201  26.843  11.120  0.00  0.00    +0.234 C 
ATOM    347  O   GLU A  26       0.333  27.597  11.938  0.00  0.00    -0.274 OA
ATOM    348  N   GLN A  27      -0.894  25.754  11.478  0.00  0.00    -0.302 N 
ATOM    349  H   GLN A  27      -1.394  25.161  10.823  0.00  0.00    +0.150 HD
BRANCH 346 350
ATOM    350  CA  GLU A  26      -0.088  27.133   9.610  0.00  0.00    +0.159 C 
BRANCH 350 353
ATOM    351  C   ASP A  25      -0.229  29.580   9.387  0.00  0.00    +0.234 C 
ATOM    352  O   ASP A  25      -1.447  29.578   9.511  0.00  0.00    -0.274 OA
ATOM    353  N   GLU A  26       0.488  28.458   9.380  0.00  0.00    -0.302 N 
ATOM    354  H   GLU A  26       1.486  28.436   9.201  0.00  0.00    +0.150 HD
BRANCH 351 355
ATOM    355  CA  ASP A  25       0.523  30.890   9.161  0.00  0.00    +0.170 C 
BRANCH 355 357
ATOM    356  C   ASP A  24      -0.104  33.135   8.444  0.00  0.00    +0.234 C 
ATOM    357  N   ASP A  25      -0.385  32.037   9.165  0.00  0.00    -0.302 N 
ATOM    358  H   ASP A  25      -1.221  31.891   9.723  0.00  0.00    +0.150 HD
ATOM    359  O   ASP A  24       0.872  33.186   7.687  0.00  0.00    -0.274 OA
BRANCH 356 360
ATOM    360  CA  ASP A  24      -1.040  34.375   8.532  0.00  0.00    +0.170 C 
BRANCH 360 362
ATOM    361  C   ASN A  23      -3.283  33.733   9.364  0.00  0.00    +0.234 C 
ATOM    362  N   ASP A  24      -2.080  34.293   9.565  0.00  0.00    -0.302 N 
ATOM    363  H   ASP A  24      -1.794  34.704  10.447  0.00  0.00    +0.150 HD
ATOM    364  O   ASN A  23      -3.576  33.166   8.325  0.00  0.00    -0.274 OA
BRANCH 361 365
ATOM    365  CA  ASN A  23      -4.321  33.777  10.518  0.00  0.00    +0.168 C 
BRANCH 365 367
ATOM    366  C   HIS A  22      -2.925  32.572  12.137  0.00  0.00    +0.234 C 
ATOM    367  N   ASN A  23      -3.698  33.618  11.839  0.00  0.00    -0.302 N 
ATOM    368  H   ASN A  23      -3.907  34.363  12.496  0.00  0.00    +0.150 HD
ATOM    369  O   HIS A  22      -2.666  31.690  11.325  0.00  0.00    -0.274 OA
BRANCH 366 370
ATOM    370  CA  HIS A  22      -2.310  32.520  13.564  0.00  0.00    +0.165 C 
BRANCH 370 373
ATOM    371  C   LYS A  21      -3.013  30.448  14.755  0.00  0.00    +0.234 C 
ATOM    372  O   LYS A  21      -3.913  30.955  15.412  0.00  0.00    -0.274 OA
ATOM    373  N   HIS A  22      -2.219  31.122  13.925  0.00  0.00    -0.302 N 
ATOM    374  H   HIS A  22      -1.429  30.682  13.465  0.00  0.00    +0.150 HD
BRANCH 371 375
ATOM    375  CA  LYS A  21      -2.743  28.940  14.861  0.00  0.00    +0.159 C 
BRANCH 375 377
ATOM    376  C   THR A  20      -1.477  27.666  16.539  0.00  0.00    +0.236 C 
ATOM    377  N   LYS A  21      -2.361  28.618  16.228  0.00  0.00    -0.302 N 
ATOM    378  H   LYS A  21      -2.829  29.198  16.917  0.00  0.00    +0.150 HD
ATOM    379  O   THR A  20      -0.867  26.987  15.702  0.00  0.00    -0.274 OA
BRANCH 376 380
ATOM    380  CA  THR A  20      -1.191  27.509  18.017  0.00  0.00    +0.187 C 
BRANCH 380 383
ATOM    381  C   ILE A  19      -1.242  25.605  19.502  0.00  0.00    +0.234 C 
ATOM    382  O   ILE A  19      -2.009  26.178  20.267  0.00  0.00    -0.274 OA
ATOM    383  N   THR A  20      -0.802  26.158  18.384  0.00  0.00    -0.300 N 
ATOM    384  H   THR A  20      -0.185  25.705  17.718  0.00  0.00    +0.150 HD
BRANCH 381 385
ATOM    385  CA  ILE A  19      -0.725  24.209  19.864  0.00  0.00    +0.162 C 
BRANCH 385 387
ATOM    386  C   VAL A  18       1.133  24.337  21.482  0.00  0.00    +0.234 C 
ATOM    387  N   ILE A  19      -0.169  24.360  21.220  0.00  0.00    -0.302 N 
ATOM    388  H   ILE A  19      -0.886  24.493  21.926  0.00  0.00    +0.150 HD
ATOM    389  O   VAL A  18       2.006  24.168  20.623  0.00  0.00    -0.274 OA
BRANCH 386 390
ATOM    390  CA  VAL A  18       1.543  24.592  22.935  0.00  0.00    +0.161 C 
BRANCH 390 393
ATOM    391  C   THR A  17       1.968  22.700  24.424  0.00  0.00    +0.236 C 
ATOM    392  O   THR A  17       0.971  22.939  25.118  0.00  0.00    -0.274 OA
ATOM    393  N   VAL A  18       2.296  23.413  23.355  0.00  0.00    -0.302 N 
ATOM    394  H   VAL A  18       3.093  23.211  22.761  0.00  0.00    +0.150 HD
BRANCH 391 395
ATOM    395  CA  THR A  17       2.862  21.489  24.754  0.00  0.00    +0.187 C 
BRANCH 395 397
ATOM    396  C   VAL A  16       4.310  21.794  26.742  0.00  0.00    +0.234 C 
ATOM    397  N   THR A  17       3.115  21.579  26.193  0.00  0.00    -0.300 N 
ATOM    398  H   THR A  17       2.264  21.460  26.735  0.00  0.00    +0.150 HD
ATOM    399  O   VAL A  16       5.350  21.883  26.088  0.00  0.00    -0.274 OA
BRANCH 396 400
ATOM    400  CA  VAL A  16       4.349  21.979  28.274  0.00  0.00    +0.161 C 
BRANCH 400 403
ATOM    401  C   LYS A  15       5.133  20.227  29.757  0.00  0.00    +0.234 C 
ATOM    402  O   LYS A  15       4.057  20.125  30.345  0.00  0.00    -0.274 OA
ATOM    403  N   VAL A  16       5.372  21.094  28.799  0.00  0.00    -0.302 N 
ATOM    404  H   VAL A  16       6.276  21.218  28.353  0.00  0.00    +0.150 HD
BRANCH 401 405
ATOM    405  CA  LYS A  15       6.288  19.311  30.105  0.00  0.00    +0.159 C 
BRANCH 405 408
ATOM    406  C   GLU A  14       7.348  18.829  32.290  0.00  0.00    +0.234 C 
ATOM    407  O   GLU A  14       8.480  18.824  31.824  0.00  0.00    -0.274 OA
ATOM    408  N   LYS A  15       6.257  19.055  31.535  0.00  0.00    -0.302 N 
ATOM    409  H   LYS A  15       5.308  19.026  31.896  0.00  0.00    +0.150 HD
BRANCH 406 410
ATOM    410  CA  GLU A  14       7.111  18.597  33.798  0.00  0.00    +0.159 C 
BRANCH 410 413
ATOM    411  C   ALA A  13       5.820  20.561  34.473  0.00  0.00    +0.234 C 
ATOM    412  O   ALA A  13       6.800  21.299  34.426  0.00  0.00    -0.274 OA
ATOM    413  N   GLU A  14       5.871  19.251  34.203  0.00  0.00    -0.302 N 
ATOM    414  H   GLU A  14       5.072  18.629  34.271  0.00  0.00    +0.150 HD
BRANCH 411 415
ATOM    415  CA  ALA A  13       4.454  21.143  34.706  0.00  0.00    +0.156 C 
ATOM    416  CB  ALA A  13       4.032  21.929  33.467  0.00  0.00    +0.038 C 
BRANCH 415 419
ATOM    417  C   VAL A  12       3.823  21.677  37.033  0.00  0.00    +0.234 C 
ATOM    418  O   VAL A  12       3.247  20.584  37.233  0.00  0.00    -0.274 OA
ATOM    419  N   ALA A  13       4.427  22.006  35.874  0.00  0.00    -0.303 N 
ATOM    420  H   ALA A  13       4.951  22.860  35.711  0.00  0.00    +0.149 HD
BRANCH 417 421
ATOM    421  CA  VAL A  12       3.763  22.759  38.130  0.00  0.00    +0.161 C 
BRANCH 421 424
ATOM    422  C   LEU A  11       5.732  24.070  38.896  0.00  0.00    +0.234 C 
ATOM    423  O   LEU A  11       5.914  23.350  39.859  0.00  0.00    -0.274 OA
ATOM    424  N   VAL A  12       4.728  23.856  38.008  0.00  0.00    -0.302 N 
ATOM    425  H   VAL A  12       4.550  24.460  37.213  0.00  0.00    +0.150 HD
BRANCH 422 426
ATOM    426  CA  LEU A  11       6.612  25.332  38.705  0.00  0.00    +0.159 C 
BRANCH 426 428
ATOM    427  C   TYR A  10       7.495  24.790  36.457  0.00  0.00    +0.234 C 
ATOM    428  N   LEU A  11       6.754  25.585  37.267  0.00  0.00    -0.302 N 
ATOM    429  H   LEU A  11       6.277  26.432  36.982  0.00  0.00    +0.150 HD
ATOM    430  O   TYR A  10       8.164  23.841  36.882  0.00  0.00    -0.274 OA
BRANCH 427 431
ATOM    431  CA  TYR A  10       7.398  24.984  34.916  0.00  0.00    +0.163 C 
BRANCH 431 434
ATOM    432  C   ALA A   9       5.095  25.824  34.594  0.00  0.00    +0.234 C 
ATOM    433  O   ALA A   9       4.578  24.804  35.039  0.00  0.00    -0.274 OA
ATOM    434  N   TYR A  10       6.444  26.017  34.512  0.00  0.00    -0.302 N 
ATOM    435  H   TYR A  10       6.885  26.868  34.177  0.00  0.00    +0.150 HD
BRANCH 432 436
ATOM    436  CA  ALA A   9       4.186  26.966  34.149  0.00  0.00    +0.156 C 
ATOM    437  CB  ALA A   9       3.911  26.811  32.657  0.00  0.00    +0.038 C 
BRANCH 436 440
ATOM    438  C   SER A   8       5.263  28.607  35.702  0.00  0.00    +0.236 C 
ATOM    439  O   SER A   8       5.075  27.884  36.683  0.00  0.00    -0.274 OA
ATOM    440  N   ALA A   9       4.823  28.270  34.454  0.00  0.00    -0.303 N 
ATOM    441  H   ALA A   9       4.818  28.899  33.658  0.00  0.00    +0.149 HD
BRANCH 438 442
ATOM    442  CA  SER A   8       6.073  29.920  35.886  0.00  0.00    +0.184 C 
BRANCH 442 444
ATOM    443  C   TYR A   7       7.452  29.728  33.852  0.00  0.00    +0.234 C 
ATOM    444  N   SER A   8       6.576  30.415  34.596  0.00  0.00    -0.301 N 
ATOM    445  H   SER A   8       6.233  31.342  34.363  0.00  0.00    +0.150 HD
ATOM    446  O   TYR A   7       7.947  28.666  34.226  0.00  0.00    -0.274 OA
BRANCH 443 447
ATOM    447  CA  TYR A   7       7.773  30.230  32.429  0.00  0.00    +0.163 C 
BRANCH 447 450
ATOM    448  C   PHE A   6       5.529  30.913  31.659  0.00  0.00    +0.234 C 
ATOM    449  O   PHE A   6       5.030  29.820  31.925  0.00  0.00    -0.274 OA
ATOM    450  N   TYR A   7       6.819  31.214  31.905  0.00  0.00    -0.302 N 
ATOM    451  H   TYR A   7       7.209  32.142  31.780  0.00  0.00    +0.150 HD
BRANCH 448 452
ATOM    452  CA  PHE A   6       4.657  32.012  31.013  0.00  0.00    +0.163 C 
BRANCH 452 455
ATOM    453  C   GLY A   5       4.912  33.571  32.908  0.00  0.00    +0.231 C 
ATOM    454  O   GLY A   5       4.706  32.687  33.739  0.00  0.00    -0.274 OA
ATOM    455  N   PHE A   6       4.899  33.353  31.577  0.00  0.00    -0.302 N 
ATOM    456  H   PHE A   6       5.054  34.074  30.880  0.00  0.00    +0.150 HD
BRANCH 453 457
ATOM    457  CA  GLY A   5       5.195  34.973  33.377  0.00  0.00    +0.200 C 
BRANCH 457 459
ATOM    458  C   VAL A   4       7.340  35.356  32.228  0.00  0.00    +0.234 C 
ATOM    459  N   GLY A   5       6.112  35.747  32.557  0.00  0.00    -0.305 N 
ATOM    460  H   GLY A   5       5.682  36.612  32.248  0.00  0.00    +0.149 HD
ATOM    461  O   VAL A   4       7.796  34.250  32.516  0.00  0.00    -0.274 OA
BRANCH 458 462
ATOM    462  CA  VAL A   4       8.145  36.352  31.374  0.00  0.00    +0.161 C 
BRANCH 462 464
ATOM    463  C   GLY A   3       7.192  38.530  30.694  0.00  0.00    +0.231 C 
ATOM    464  N   VAL A   4       7.720  37.739  31.642  0.00  0.00    -0.302 N 
ATOM    465  H   VAL A   4       7.800  38.001  32.618  0.00  0.00    +0.150 HD
ATOM    466  O   GLY A   3       6.936  38.106  29.570  0.00  0.00    -0.274 OA
BRANCH 463 467
ATOM    467  CA  GLY A   3       6.833  39.967  31.050  0.00  0.00    +0.200 C 
BRANCH 467 469
ATOM    468  C   PHE A   2       8.558  40.746  32.617  0.00  0.00    +0.234 C 
ATOM    469  N   GLY A   3       7.283  40.463  32.351  0.00  0.00    -0.305 N 
ATOM    470  H   GLY A   3       6.516  40.570  33.006  0.00  0.00    +0.149 HD
ATOM    471  O   PHE A   2       9.468  40.578  31.794  0.00  0.00    -0.274 OA
BRANCH 468 472
ATOM    472  CA  PHE A   2       8.889  41.304  34.017  0.00  0.00    +0.163 C 
BRANCH 472 474
ATOM    473  C   GLN A   1       7.033  42.361  35.293  0.00  0.00    +0.234 C 
ATOM    474  N   PHE A   2       7.763  41.279  34.957  0.00  0.00    -0.302 N 
ATOM    475  H   PHE A   2       7.646  40.362  35.373  0.00  0.00    +0.150 HD
ATOM    476  O   GLN A   1       7.270  43.475  34.852  0.00  0.00    -0.274 OA
BRANCH 473 477
ATOM    477  CA  GLN A   1       5.812  42.177  36.209  0.00  0.00    +0.159 C 
BRANCH 477 479
ATOM    478  C   UNK A   0       4.926  40.047  35.351  0.00  0.00    +0.231 C 
ATOM    479  N   GLN A   1       5.427  40.770  36.369  0.00  0.00    -0.303 N 
ATOM    480  H   GLN A   1       5.556  40.416  37.312  0.00  0.00    +0.149 HD
ATOM    481  O   UNK A   0       4.792  40.499  34.207  0.00  0.00    -0.274 OA
BRANCH 478 482
ATOM    482  C   UNK A   0       4.648  38.583  35.634  0.00  0.00    +0.200 C 
BRANCH 482 484
ATOM    483  C   UNK A   0       6.890  37.840  36.307  0.00  0.00    +0.217 C 
ATOM    484  N   UNK A   0       5.594  37.968  36.559  0.00  0.00    -0.306 N 
ATOM    485  H   UNK A   0       5.154  37.665  37.422  0.00  0.00    +0.149 HD
ATOM    486  O   UNK A   0       7.436  38.303  35.304  0.00  0.00    -0.275 OA
BRANCH 483 487
ATOM    487  C   UNK A   0       7.756  37.144  37.388  0.00  0.00    +0.090 C 
BRANCH 487 488
ATOM    488  C   UNK A   0       7.715  35.583  37.232  0.00  0.00    -0.002 C 
ATOM    489  C   UNK A   0       6.306  35.007  37.464  0.00  0.00    +0.008 C 
BRANCH 488 490
ATOM    490  C   UNK A   0       8.342  35.173  35.889  0.00  0.00    +0.000 C 
ATOM    491  C   UNK A   0       8.551  33.675  35.701  0.00  0.00    +0.004 C 
ENDBRANCH 488 490
ENDBRANCH 487 488
ENDBRANCH 483 487
ENDBRANCH 482 484
ENDBRANCH 478 482
ENDBRANCH 477 479
BRANCH 477 492
ATOM    492  CB  GLN A   1       6.004  42.874  37.581  0.00  0.00    +0.041 C 
BRANCH 492 493
ATOM    493  CG  GLN A   1       4.660  43.114  38.289  0.00  0.00    +0.098 C 
BRANCH 493 494
ATOM    494  CD  GLN A   1       4.740  43.031  39.789  0.00  0.00    +0.211 C 
ATOM    495  NE2 GLN A   1       5.226  44.089  40.423  0.00  0.00    -0.329 N 
ATOM    496 HE21 GLN A   1       5.298  44.085  41.436  0.00  0.00    +0.145 HD
ATOM    497 HE22 GLN A   1       5.513  44.909  39.900  0.00  0.00    +0.145 HD
ATOM    498  OE1 GLN A   1       4.306  42.046  40.399  0.00  0.00    -0.276 OA
ENDBRANCH 493 494
ENDBRANCH 492 493
ENDBRANCH 477 492
ENDBRANCH 473 477
ENDBRANCH 472 474
BRANCH 472 499
ATOM    499  CB  PHE A   2      10.091  40.564  34.626  0.00  0.00    +0.067 C 
BRANCH 499 500
ATOM    500  CG  PHE A   2      10.645  41.269  35.835  0.00  0.00    -0.045 A 
ATOM    501  CD2 PHE A   2      10.134  41.015  37.096  0.00  0.00    +0.004 A 
ATOM    502  CE2 PHE A   2      10.621  41.692  38.221  0.00  0.00    +0.000 A 
ATOM    503  CZ  PHE A   2      11.638  42.609  38.084  0.00  0.00    +0.000 A 
ATOM    504  CE1 PHE A   2      12.149  42.887  36.838  0.00  0.00    +0.000 A 
ATOM    505  CD1 PHE A   2      11.625  42.250  35.706  0.00  0.00    +0.004 A 
ENDBRANCH 499 500
ENDBRANCH 472 499
ENDBRANCH 468 472
ENDBRANCH 467 469
ENDBRANCH 463 467
ENDBRANCH 462 464
BRANCH 462 506
ATOM    506  CB  VAL A   4       9.675  36.225  31.561  0.00  0.00    +0.012 C 
ATOM    507  CG2 VAL A   4      10.117  36.758  32.913  0.00  0.00    +0.009 C 
ATOM    508  CG1 VAL A   4      10.399  36.955  30.437  0.00  0.00    +0.009 C 
ENDBRANCH 462 506
ENDBRANCH 458 462
ENDBRANCH 457 459
ENDBRANCH 453 457
ENDBRANCH 452 455
BRANCH 452 509
ATOM    509  CB  PHE A   6       4.924  32.005  29.504  0.00  0.00    +0.067 C 
BRANCH 509 510
ATOM    510  CG  PHE A   6       5.000  30.590  28.995  0.00  0.00    -0.045 A 
ATOM    511  CD2 PHE A   6       3.864  29.801  28.926  0.00  0.00    +0.004 A 
ATOM    512  CE2 PHE A   6       3.944  28.457  28.535  0.00  0.00    +0.000 A 
ATOM    513  CZ  PHE A   6       5.152  27.927  28.146  0.00  0.00    +0.000 A 
ATOM    514  CE1 PHE A   6       6.294  28.691  28.234  0.00  0.00    +0.000 A 
ATOM    515  CD1 PHE A   6       6.227  29.998  28.717  0.00  0.00    +0.004 A 
ENDBRANCH 509 510
ENDBRANCH 452 509
ENDBRANCH 448 452
ENDBRANCH 447 450
BRANCH 447 516
ATOM    516  CB  TYR A   7       9.211  30.743  32.308  0.00  0.00    +0.067 C 
BRANCH 516 517
ATOM    517  CG  TYR A   7       9.563  30.970  30.855  0.00  0.00    -0.045 A 
ATOM    518  CD2 TYR A   7       9.532  32.244  30.305  0.00  0.00    +0.007 A 
ATOM    519  CE2 TYR A   7       9.715  32.450  28.939  0.00  0.00    +0.045 A 
ATOM    520  CZ  TYR A   7      10.014  31.378  28.115  0.00  0.00    +0.117 A 
ATOM    521  CE1 TYR A   7      10.043  30.100  28.639  0.00  0.00    +0.045 A 
ATOM    522  CD1 TYR A   7       9.792  29.901  29.999  0.00  0.00    +0.007 A 
BRANCH 520 523
ATOM    523  OH  TYR A   7      10.209  31.566  26.763  0.00  0.00    -0.507 OA
ATOM    524  HH  TYR A   7      10.439  32.510  26.557  0.00  0.00    +0.292 HD
ENDBRANCH 520 523
ENDBRANCH 516 517
ENDBRANCH 447 516
ENDBRANCH 443 447
ENDBRANCH 442 444
BRANCH 442 525
ATOM    525  CB  SER A   8       5.227  30.976  36.594  0.00  0.00    +0.187 C 
BRANCH 525 526
ATOM    526  OG  SER A   8       4.016  31.237  35.912  0.00  0.00    -0.393 OA
ATOM    527  H   SER A   8       4.142  31.964  35.248  0.00  0.00    +0.209 HD
ENDBRANCH 525 526
ENDBRANCH 442 525
ENDBRANCH 438 442
ENDBRANCH 436 440
ENDBRANCH 432 436
ENDBRANCH 431 434
BRANCH 431 528
ATOM    528  CB  TYR A  10       8.747  25.191  34.266  0.00  0.00    +0.067 C 
BRANCH 528 529
ATOM    529  CG  TYR A  10       8.651  24.916  32.780  0.00  0.00    -0.045 A 
ATOM    530  CD2 TYR A  10       8.656  23.609  32.296  0.00  0.00    +0.007 A 
ATOM    531  CE2 TYR A  10       8.559  23.342  30.934  0.00  0.00    +0.045 A 
ATOM    532  CZ  TYR A  10       8.225  24.357  30.058  0.00  0.00    +0.117 A 
ATOM    533  CE1 TYR A  10       8.123  25.665  30.528  0.00  0.00    +0.045 A 
ATOM    534  CD1 TYR A  10       8.328  25.931  31.884  0.00  0.00    +0.007 A 
BRANCH 532 535
ATOM    535  OH  TYR A  10       8.030  24.081  28.727  0.00  0.00    -0.507 OA
ATOM    536  HH  TYR A  10       7.747  23.140  28.588  0.00  0.00    +0.292 HD
ENDBRANCH 532 535
ENDBRANCH 528 529
ENDBRANCH 431 528
ENDBRANCH 427 431
ENDBRANCH 426 428
BRANCH 426 537
ATOM    537  CB  LEU A  11       5.915  26.494  39.430  0.00  0.00    +0.034 C 
BRANCH 537 538
ATOM    538  CG  LEU A  11       6.698  27.800  39.540  0.00  0.00    -0.015 C 
ATOM    539  CD2 LEU A  11       7.856  27.658  40.532  0.00  0.00    +0.007 C 
ATOM    540  CD1 LEU A  11       5.814  28.938  39.959  0.00  0.00    +0.007 C 
ENDBRANCH 537 538
ENDBRANCH 426 537
ENDBRANCH 422 426
ENDBRANCH 421 424
BRANCH 421 541
ATOM    541  CB  VAL A  12       2.317  23.325  38.228  0.00  0.00    +0.012 C 
ATOM    542  CG2 VAL A  12       2.168  24.239  39.449  0.00  0.00    +0.009 C 
ATOM    543  CG1 VAL A  12       1.872  24.035  36.943  0.00  0.00    +0.009 C 
ENDBRANCH 421 541
ENDBRANCH 417 421
ENDBRANCH 415 419
ENDBRANCH 411 415
ENDBRANCH 410 413
BRANCH 410 544
ATOM    544  CB  GLU A  14       7.052  17.106  34.155  0.00  0.00    +0.043 C 
BRANCH 544 545
ATOM    545  CG  GLU A  14       6.197  16.232  33.261  0.00  0.00    +0.127 C 
BRANCH 545 546
ATOM    546  CD  GLU A  14       5.987  14.829  33.810  0.00  0.00    +0.356 C 
ATOM    547  OE2 GLU A  14       6.634  14.467  34.822  0.00  0.00    -0.246 OA
ATOM    548  OE1 GLU A  14       5.176  14.084  33.215  0.00  0.00    -0.246 OA
ENDBRANCH 545 546
ENDBRANCH 544 545
ENDBRANCH 410 544
ENDBRANCH 406 410
ENDBRANCH 405 408
BRANCH 405 549
ATOM    549  CB  LYS A  15       6.133  18.004  29.303  0.00  0.00    +0.032 C 
BRANCH 549 550
ATOM    550  CG  LYS A  15       6.314  18.181  27.785  0.00  0.00    +0.000 C 
BRANCH 550 551
ATOM    551  CD  LYS A  15       6.479  16.852  27.065  0.00  0.00    -0.019 C 
BRANCH 551 552
ATOM    552  CE  LYS A  15       5.162  16.141  26.867  0.00  0.00    -0.086 C 
BRANCH 552 553
ATOM    553  NZ  LYS A  15       5.346  14.740  26.389  0.00  0.00    +0.378 N 
ATOM    554  HZ1 LYS A  15       5.865  14.203  27.076  0.00  0.00    -0.090 HD
ATOM    555  HZ2 LYS A  15       4.441  14.303  26.243  0.00  0.00    -0.090 HD
ATOM    556  HZ3 LYS A  15       5.859  14.737  25.513  0.00  0.00    -0.090 HD
ENDBRANCH 552 553
ENDBRANCH 551 552
ENDBRANCH 550 551
ENDBRANCH 549 550
ENDBRANCH 405 549
ENDBRANCH 401 405
ENDBRANCH 400 403
BRANCH 400 557
ATOM    557  CB  VAL A  16       4.572  23.465  28.666  0.00  0.00    +0.012 C 
ATOM    558  CG2 VAL A  16       4.714  23.634  30.184  0.00  0.00    +0.009 C 
ATOM    559  CG1 VAL A  16       3.432  24.336  28.122  0.00  0.00    +0.009 C 
ENDBRANCH 400 557
ENDBRANCH 396 400
ENDBRANCH 395 397
BRANCH 395 560
ATOM    560  CB  THR A  17       2.155  20.186  24.340  0.00  0.00    +0.141 C 
ATOM    561  CG2 THR A  17       2.034  20.068  22.807  0.00  0.00    +0.040 C 
BRANCH 560 562
ATOM    562  OG1 THR A  17       2.835  19.057  24.914  0.00  0.00    -0.390 OA
ATOM    563  HG1 THR A  17       2.830  18.273  24.305  0.00  0.00    +0.210 HD
ENDBRANCH 560 562
ENDBRANCH 395 560
ENDBRANCH 391 395
ENDBRANCH 390 393
BRANCH 390 564
ATOM    564  CB  VAL A  18       2.393  25.888  23.033  0.00  0.00    +0.012 C 
ATOM    565  CG2 VAL A  18       2.810  26.180  24.469  0.00  0.00    +0.009 C 
ATOM    566  CG1 VAL A  18       1.690  27.080  22.407  0.00  0.00    +0.009 C 
ENDBRANCH 390 564
ENDBRANCH 386 390
ENDBRANCH 385 387
BRANCH 385 567
ATOM    567  CB  ILE A  19      -1.856  23.151  19.779  0.00  0.00    +0.015 C 
ATOM    568  CG2 ILE A  19      -2.354  23.013  18.323  0.00  0.00    +0.010 C 
BRANCH 567 569
ATOM    569  CG1 ILE A  19      -1.430  21.793  20.401  0.00  0.00    +0.002 C 
ATOM    570  CD1 ILE A  19      -0.199  21.215  19.843  0.00  0.00    +0.004 C 
ENDBRANCH 567 569
ENDBRANCH 385 567
ENDBRANCH 381 385
ENDBRANCH 380 383
BRANCH 380 571
ATOM    571  CB  THR A  20      -0.118  28.511  18.531  0.00  0.00    +0.141 C 
ATOM    572  CG2 THR A  20       1.176  28.442  17.761  0.00  0.00    +0.040 C 
BRANCH 571 573
ATOM    573  OG1 THR A  20      -0.638  29.837  18.483  0.00  0.00    -0.390 OA
ATOM    574  HG1 THR A  20      -1.084  30.051  19.344  0.00  0.00    +0.210 HD
ENDBRANCH 571 573
ENDBRANCH 380 571
ENDBRANCH 376 380
ENDBRANCH 375 377
BRANCH 375 575
ATOM    575  CB  LYS A  21      -3.974  28.113  14.458  0.00  0.00    +0.032 C 
BRANCH 575 576
ATOM    576  CG  LYS A  21      -4.505  28.423  13.050  0.00  0.00    +0.000 C 
BRANCH 576 577
ATOM    577  CD  LYS A  21      -3.508  28.080  11.921  0.00  0.00    -0.019 C 
BRANCH 577 578
ATOM    578  CE  LYS A  21      -4.140  28.174  10.537  0.00  0.00    -0.086 C 
BRANCH 578 579
ATOM    579  NZ  LYS A  21      -4.369  29.576  10.105  0.00  0.00    +0.378 N 
ATOM    580  HZ1 LYS A  21      -5.129  29.983  10.641  0.00  0.00    -0.090 HD
ATOM    581  HZ2 LYS A  21      -3.533  30.138  10.230  0.00  0.00    -0.090 HD
ATOM    582  HZ3 LYS A  21      -4.628  29.589   9.124  0.00  0.00    -0.090 HD
ENDBRANCH 578 579
ENDBRANCH 577 578
ENDBRANCH 576 577
ENDBRANCH 575 576
ENDBRANCH 375 575
ENDBRANCH 371 375
ENDBRANCH 370 373
BRANCH 370 583
ATOM    583  CB  HIS A  22      -0.915  33.134  13.578  0.00  0.00    +0.088 C 
BRANCH 583 584
ATOM    584  CG  HIS A  22      -0.865  34.629  13.398  0.00  0.00    +0.061 A 
ATOM    585  CD2 HIS A  22      -0.730  35.607  14.325  0.00  0.00    +0.107 A 
ATOM    586  NE2 HIS A  22      -0.772  36.813  13.651  0.00  0.00    -0.351 N 
ATOM    587  HE2 HIS A  22      -0.696  37.737  14.063  0.00  0.00    +0.166 HD
ATOM    588  CE1 HIS A  22      -0.929  36.532  12.354  0.00  0.00    +0.196 A 
ATOM    589  ND1 HIS A  22      -0.977  35.218  12.145  0.00  0.00    -0.241 NA
ENDBRANCH 583 584
ENDBRANCH 370 583
ENDBRANCH 366 370
ENDBRANCH 365 367
BRANCH 365 590
ATOM    590  CB  ASN A  23      -5.107  35.110  10.463  0.00  0.00    +0.127 C 
BRANCH 590 591
ATOM    591  CG  ASN A  23      -6.437  35.089  11.176  0.00  0.00    +0.213 C 
ATOM    592  ND2 ASN A  23      -6.939  36.255  11.562  0.00  0.00    -0.329 N 
ATOM    593 HD21 ASN A  23      -7.830  36.282  12.047  0.00  0.00    +0.145 HD
ATOM    594 HD22 ASN A  23      -6.431  37.118  11.391  0.00  0.00    +0.145 HD
ATOM    595  OD1 ASN A  23      -7.038  34.032  11.411  0.00  0.00    -0.276 OA
ENDBRANCH 590 591
ENDBRANCH 365 590
ENDBRANCH 361 365
ENDBRANCH 360 362
BRANCH 360 596
ATOM    596  CB  ASP A  24      -0.179  35.633   8.765  0.00  0.00    +0.156 C 
BRANCH 596 597
ATOM    597  CG  ASP A  24      -0.946  36.944   8.731  0.00  0.00    +0.358 C 
ATOM    598  OD2 ASP A  24      -0.358  37.983   9.099  0.00  0.00    -0.246 OA
ATOM    599  OD1 ASP A  24      -2.123  36.934   8.303  0.00  0.00    -0.246 OA
ENDBRANCH 596 597
ENDBRANCH 360 596
ENDBRANCH 356 360
ENDBRANCH 355 357
BRANCH 355 600
ATOM    600  CB  ASP A  25       1.634  31.110  10.233  0.00  0.00    +0.156 C 
BRANCH 600 601
ATOM    601  CG  ASP A  25       3.010  30.541   9.884  0.00  0.00    +0.358 C 
ATOM    602  OD2 ASP A  25       4.018  30.973  10.520  0.00  0.00    -0.246 OA
ATOM    603  OD1 ASP A  25       3.070  29.579   9.067  0.00  0.00    -0.246 OA
ENDBRANCH 600 601
ENDBRANCH 355 600
ENDBRANCH 351 355
ENDBRANCH 350 353
BRANCH 350 604
ATOM    604  CB  GLU A  26       0.787  26.049   8.929  0.00  0.00    +0.043 C 
BRANCH 604 605
ATOM    605  CG  GLU A  26       0.720  26.078   7.409  0.00  0.00    +0.127 C 
BRANCH 605 606
ATOM    606  CD  GLU A  26       1.662  25.094   6.731  0.00  0.00    +0.356 C 
ATOM    607  OE2 GLU A  26       1.801  23.950   7.226  0.00  0.00    -0.246 OA
ATOM    608  OE1 GLU A  26       2.255  25.468   5.693  0.00  0.00    -0.246 OA
ENDBRANCH 605 606
ENDBRANCH 604 605
ENDBRANCH 350 604
ENDBRANCH 346 350
ENDBRANCH 345 348
BRANCH 345 609
ATOM    609  CB  GLN A  27      -2.168  24.356  13.029  0.00  0.00    +0.041 C 
BRANCH 609 610
ATOM    610  CG  GLN A  27      -2.501  24.063  14.480  0.00  0.00    +0.098 C 
BRANCH 610 611
ATOM    611  CD  GLN A  27      -3.900  23.507  14.565  0.00  0.00    +0.211 C 
ATOM    612  NE2 GLN A  27      -4.068  22.337  15.158  0.00  0.00    -0.329 N 
ATOM    613 HE21 GLN A  27      -3.278  21.830  15.541  0.00  0.00    +0.145 HD
ATOM    614 HE22 GLN A  27      -4.998  21.938  15.227  0.00  0.00    +0.145 HD
ATOM    615  OE1 GLN A  27      -4.856  24.140  14.104  0.00  0.00    -0.276 OA
ENDBRANCH 610 611
ENDBRANCH 609 610
ENDBRANCH 345 609
ENDBRANCH 341 345
ENDBRANCH 340 342
BRANCH 340 616
ATOM    616  CB  TYR A  28       3.234  25.546  14.956  0.00  0.00    +0.067 C 
BRANCH 616 617
ATOM    617  CG  TYR A  28       3.623  26.038  13.591  0.00  0.00    -0.045 A 
ATOM    618  CD2 TYR A  28       3.159  27.255  13.116  0.00  0.00    +0.007 A 
ATOM    619  CE2 TYR A  28       3.516  27.720  11.856  0.00  0.00    +0.045 A 
ATOM    620  CZ  TYR A  28       4.333  26.949  11.043  0.00  0.00    +0.117 A 
ATOM    621  CE1 TYR A  28       4.853  25.758  11.522  0.00  0.00    +0.045 A 
ATOM    622  CD1 TYR A  28       4.506  25.318  12.795  0.00  0.00    +0.007 A 
BRANCH 620 623
ATOM    623  OH  TYR A  28       4.737  27.420   9.820  0.00  0.00    -0.507 OA
ATOM    624  HH  TYR A  28       3.993  27.896   9.366  0.00  0.00    +0.292 HD
ENDBRANCH 620 623
ENDBRANCH 616 617
ENDBRANCH 340 616
ENDBRANCH 336 340
ENDBRANCH 334 338
ENDBRANCH 330 334
ENDBRANCH 329 331
BRANCH 329 625
ATOM    625  CB  TRP A  30       5.778  25.240  20.625  0.00  0.00    +0.069 C 
BRANCH 625 626
ATOM    626  CG  TRP A  30       6.919  25.698  21.486  0.00  0.00    -0.020 A 
ATOM    627  CD2 TRP A  30       6.963  25.688  22.922  0.00  0.00    +0.003 A 
ATOM    628  CE3 TRP A  30       6.166  25.096  23.922  0.00  0.00    +0.010 A 
ATOM    629  CZ3 TRP A  30       6.566  25.202  25.251  0.00  0.00    +0.001 A 
ATOM    630  CH2 TRP A  30       7.738  25.878  25.594  0.00  0.00    +0.002 A 
ATOM    631  CZ2 TRP A  30       8.520  26.494  24.641  0.00  0.00    +0.026 A 
ATOM    632  CE2 TRP A  30       8.148  26.348  23.306  0.00  0.00    +0.047 A 
ATOM    633  NE1 TRP A  30       8.734  26.825  22.166  0.00  0.00    -0.360 N 
ATOM    634  HE1 TRP A  30       9.604  27.346  22.119  0.00  0.00    +0.165 HD
ATOM    635  CD1 TRP A  30       7.977  26.454  21.082  0.00  0.00    +0.087 A 
ENDBRANCH 625 626
ENDBRANCH 329 625
ENDBRANCH 325 329
ENDBRANCH 324 327
BRANCH 324 636
ATOM    636  CB  GLU A  31       6.629  20.129  22.803  0.00  0.00    +0.043 C 
BRANCH 636 637
ATOM    637  CG  GLU A  31       6.281  19.228  23.960  0.00  0.00    +0.127 C 
BRANCH 637 638
ATOM    638  CD  GLU A  31       5.816  17.879  23.453  0.00  0.00    +0.356 C 
ATOM    639  OE2 GLU A  31       4.585  17.668  23.375  0.00  0.00    -0.246 OA
ATOM    640  OE1 GLU A  31       6.678  17.086  23.013  0.00  0.00    -0.246 OA
ENDBRANCH 637 638
ENDBRANCH 636 637
ENDBRANCH 324 636
ENDBRANCH 320 324
ENDBRANCH   1 321
BRANCH   1 641
ATOM    641  CB  SER A  32      10.090  23.084  26.148  0.00  0.00    +0.187 C 
BRANCH 641 642
ATOM    642  OG  SER A  32      11.275  23.045  26.944  0.00  0.00    -0.393 OA
ATOM    643  H   SER A  32      11.983  22.515  26.493  0.00  0.00    +0.209 HD
ENDBRANCH 641 642
ENDBRANCH   1 641
TORSDOF 267
REMARK  Name = /Users/mlugowska/PhD/ML_residence_time_prediction/protein_files/5J20_protein.pdb
REMARK  961 active torsions:
REMARK  status: ('A' for Active; 'I' for Inactive)
REMARK    1  A    between atoms: _2  and  _3
REMARK    2  A    between atoms: _2  and  _5
REMARK    3  A    between atoms: _10  and  _11
REMARK    4  A    between atoms: _11  and  _12
REMARK    5  A    between atoms: _11  and  _14
REMARK    6  A    between atoms: _14  and  _15
REMARK    7  A    between atoms: _14  and  _16
REMARK    8  A    between atoms: _26  and  _27
REMARK    9  A    between atoms: _27  and  _28
REMARK   10  A    between atoms: _27  and  _30
REMARK   11  A    between atoms: _30  and  _31
REMARK   12  A    between atoms: _31  and  _32
REMARK   13  A    between atoms: _41  and  _42
REMARK   14  A    between atoms: _42  and  _43
REMARK   15  A    between atoms: _42  and  _45
REMARK   16  A    between atoms: _45  and  _46
REMARK   17  A    between atoms: _45  and  _47
REMARK   18  A    between atoms: _55  and  _56
REMARK   19  A    between atoms: _56  and  _57
REMARK   20  A    between atoms: _56  and  _59
REMARK   21  A    between atoms: _59  and  _60
REMARK   22  A    between atoms: _75  and  _76
REMARK   23  A    between atoms: _76  and  _77
REMARK   24  A    between atoms: _76  and  _79
REMARK   25  A    between atoms: _85  and  _86
REMARK   26  A    between atoms: _86  and  _87
REMARK   27  A    between atoms: _86  and  _89
REMARK   28  A    between atoms: _89  and  _90
REMARK   29  A    between atoms: _105  and  _106
REMARK   30  A    between atoms: _106  and  _107
REMARK   31  A    between atoms: _106  and  _109
REMARK   32  A    between atoms: _109  and  _110
REMARK   33  A    between atoms: _110  and  _111
REMARK   34  A    between atoms: _122  and  _123
REMARK   35  A    between atoms: _123  and  _124
REMARK   36  A    between atoms: _123  and  _126
REMARK   37  A    between atoms: _132  and  _133
REMARK   38  A    between atoms: _133  and  _134
REMARK   39  A    between atoms: _133  and  _136
REMARK   40  A    between atoms: _136  and  _137
REMARK   41  A    between atoms: _137  and  _138
REMARK   42  A    between atoms: _147  and  _148
REMARK   43  A    between atoms: _148  and  _149
REMARK   44  A    between atoms: _148  and  _151
REMARK   45  A    between atoms: _151  and  _152
REMARK   46  A    between atoms: _151  and  _153
REMARK   47  A    between atoms: _152  and  _154
REMARK   48  A    between atoms: _166  and  _167
REMARK   49  A    between atoms: _167  and  _168
REMARK   50  A    between atoms: _167  and  _170
REMARK   51  A    between atoms: _176  and  _177
REMARK   52  A    between atoms: _177  and  _178
REMARK   53  A    between atoms: _177  and  _180
REMARK   54  A    between atoms: _180  and  _181
REMARK   55  A    between atoms: _181  and  _182
REMARK   56  A    between atoms: _193  and  _194
REMARK   57  A    between atoms: _194  and  _195
REMARK   58  A    between atoms: _194  and  _197
REMARK   59  A    between atoms: _197  and  _198
REMARK   60  A    between atoms: _198  and  _199
REMARK   61  A    between atoms: _198  and  _200
REMARK   62  A    between atoms: _212  and  _213
REMARK   63  A    between atoms: _213  and  _214
REMARK   64  A    between atoms: _213  and  _216
REMARK   65  A    between atoms: _216  and  _217
REMARK   66  A    between atoms: _217  and  _218
REMARK   67  A    between atoms: _218  and  _219
REMARK   68  A    between atoms: _229  and  _230
REMARK   69  A    between atoms: _230  and  _231
REMARK   70  A    between atoms: _230  and  _233
REMARK   71  A    between atoms: _233  and  _234
REMARK   72  A    between atoms: _240  and  _241
REMARK   73  A    between atoms: _241  and  _242
REMARK   74  A    between atoms: _241  and  _244
REMARK   75  A    between atoms: _244  and  _245
REMARK   76  A    between atoms: _245  and  _246
REMARK   77  A    between atoms: _245  and  _247
REMARK   78  A    between atoms: _259  and  _260
REMARK   79  A    between atoms: _260  and  _261
REMARK   80  A    between atoms: _260  and  _263
REMARK   81  A    between atoms: _263  and  _264
REMARK   82  A    between atoms: _263  and  _265
REMARK   83  A    between atoms: _264  and  _266
REMARK   84  A    between atoms: _278  and  _279
REMARK   85  A    between atoms: _279  and  _280
REMARK   86  A    between atoms: _279  and  _282
REMARK   87  A    between atoms: _282  and  _283
REMARK   88  A    between atoms: _282  and  _284
REMARK   89  A    between atoms: _283  and  _285
REMARK   90  A    between atoms: _297  and  _298
REMARK   91  A    between atoms: _298  and  _299
REMARK   92  A    between atoms: _298  and  _301
REMARK   93  A    between atoms: _301  and  _302
REMARK   94  A    between atoms: _311  and  _312
REMARK   95  A    between atoms: _312  and  _313
REMARK   96  A    between atoms: _312  and  _315
REMARK   97  A    between atoms: _315  and  _316
REMARK   98  A    between atoms: _315  and  _317
REMARK   99  A    between atoms: _325  and  _326
REMARK  100  A    between atoms: _326  and  _327
REMARK  101  A    between atoms: _326  and  _329
REMARK  102  A    between atoms: _329  and  _330
REMARK  103  A    between atoms: _345  and  _346
REMARK  104  A    between atoms: _346  and  _347
REMARK  105  A    between atoms: _346  and  _349
REMARK  106  A    between atoms: _349  and  _350
REMARK  107  A    between atoms: _355  and  _356
REMARK  108  A    between atoms: _366  and  _367
REMARK  109  A    between atoms: _367  and  _368
REMARK  110  A    between atoms: _367  and  _370
REMARK  111  A    between atoms: _370  and  _371
REMARK  112  A    between atoms: _377  and  _378
REMARK  113  A    between atoms: _378  and  _379
REMARK  114  A    between atoms: _378  and  _381
REMARK  115  A    between atoms: _381  and  _382
REMARK  116  A    between atoms: _391  and  _392
REMARK  117  A    between atoms: _392  and  _393
REMARK  118  A    between atoms: _392  and  _395
REMARK  119  A    between atoms: _395  and  _396
REMARK  120  A    between atoms: _396  and  _397
REMARK  121  A    between atoms: _397  and  _398
REMARK  122  A    between atoms: _398  and  _399
REMARK  123  A    between atoms: _413  and  _414
REMARK  124  A    between atoms: _414  and  _415
REMARK  125  A    between atoms: _414  and  _417
REMARK  126  A    between atoms: _417  and  _418
REMARK  127  A    between atoms: _418  and  _419
REMARK  128  A    between atoms: _428  and  _429
REMARK  129  A    between atoms: _429  and  _430
REMARK  130  A    between atoms: _429  and  _432
REMARK  131  A    between atoms: _432  and  _433
REMARK  132  A    between atoms: _432  and  _434
REMARK  133  A    between atoms: _433  and  _435
REMARK  134  A    between atoms: _447  and  _448
REMARK  135  A    between atoms: _448  and  _449
REMARK  136  A    between atoms: _448  and  _451
REMARK  137  A    between atoms: _451  and  _452
REMARK  138  A    between atoms: _467  and  _468
REMARK  139  A    between atoms: _468  and  _469
REMARK  140  A    between atoms: _468  and  _471
REMARK  141  A    between atoms: _471  and  _472
REMARK  142  A    between atoms: _472  and  _473
REMARK  143  A    between atoms: _472  and  _474
REMARK  144  A    between atoms: _486  and  _487
REMARK  145  A    between atoms: _487  and  _488
REMARK  146  A    between atoms: _487  and  _490
REMARK  147  A    between atoms: _490  and  _491
REMARK  148  A    between atoms: _491  and  _492
REMARK  149  A    between atoms: _492  and  _493
REMARK  150  A    between atoms: _510  and  _511
REMARK  151  A    between atoms: _511  and  _512
REMARK  152  A    between atoms: _511  and  _514
REMARK  153  A    between atoms: _514  and  _515
REMARK  154  A    between atoms: _515  and  _516
REMARK  155  A    between atoms: _525  and  _526
REMARK  156  A    between atoms: _526  and  _527
REMARK  157  A    between atoms: _526  and  _529
REMARK  158  A    between atoms: _529  and  _530
REMARK  159  A    between atoms: _530  and  _531
REMARK  160  A    between atoms: _530  and  _532
REMARK  161  A    between atoms: _544  and  _545
REMARK  162  A    between atoms: _545  and  _546
REMARK  163  A    between atoms: _545  and  _548
REMARK  164  A    between atoms: _548  and  _549
REMARK  165  A    between atoms: _548  and  _550
REMARK  166  A    between atoms: _549  and  _551
REMARK  167  A    between atoms: _563  and  _564
REMARK  168  A    between atoms: _564  and  _565
REMARK  169  A    between atoms: _564  and  _567
REMARK  170  A    between atoms: _567  and  _568
REMARK  171  A    between atoms: _574  and  _575
REMARK  172  A    between atoms: _575  and  _576
REMARK  173  A    between atoms: _575  and  _578
REMARK  174  A    between atoms: _578  and  _579
REMARK  175  A    between atoms: _588  and  _589
REMARK  176  A    between atoms: _589  and  _590
REMARK  177  A    between atoms: _589  and  _592
REMARK  178  A    between atoms: _592  and  _593
REMARK  179  A    between atoms: _599  and  _600
REMARK  180  A    between atoms: _600  and  _601
REMARK  181  A    between atoms: _600  and  _603
REMARK  182  A    between atoms: _603  and  _604
REMARK  183  A    between atoms: _610  and  _611
REMARK  184  A    between atoms: _611  and  _612
REMARK  185  A    between atoms: _611  and  _614
REMARK  186  A    between atoms: _614  and  _615
REMARK  187  A    between atoms: _622  and  _623
REMARK  188  A    between atoms: _623  and  _624
REMARK  189  A    between atoms: _623  and  _626
REMARK  190  A    between atoms: _632  and  _633
REMARK  191  A    between atoms: _633  and  _634
REMARK  192  A    between atoms: _633  and  _636
REMARK  193  A    between atoms: _636  and  _637
REMARK  194  A    between atoms: _637  and  _638
REMARK  195  A    between atoms: _637  and  _639
REMARK  196  A    between atoms: _651  and  _652
REMARK  197  A    between atoms: _652  and  _653
REMARK  198  A    between atoms: _652  and  _655
REMARK  199  A    between atoms: _655  and  _656
REMARK  200  A    between atoms: _663  and  _664
REMARK  201  A    between atoms: _664  and  _665
REMARK  202  A    between atoms: _664  and  _667
REMARK  203  A    between atoms: _667  and  _668
REMARK  204  A    between atoms: _668  and  _669
REMARK  205  A    between atoms: _669  and  _670
REMARK  206  A    between atoms: _670  and  _671
REMARK  207  A    between atoms: _685  and  _686
REMARK  208  A    between atoms: _686  and  _687
REMARK  209  A    between atoms: _686  and  _689
REMARK  210  A    between atoms: _689  and  _690
REMARK  211  A    between atoms: _689  and  _691
REMARK  212  A    between atoms: _690  and  _692
REMARK  213  A    between atoms: _704  and  _705
REMARK  214  A    between atoms: _705  and  _706
REMARK  215  A    between atoms: _705  and  _708
REMARK  216  A    between atoms: _708  and  _709
REMARK  217  A    between atoms: _709  and  _710
REMARK  218  A    between atoms: _710  and  _711
REMARK  219  A    between atoms: _728  and  _729
REMARK  220  A    between atoms: _729  and  _730
REMARK  221  A    between atoms: _729  and  _732
REMARK  222  A    between atoms: _732  and  _733
REMARK  223  A    between atoms: _738  and  _739
REMARK  224  A    between atoms: _749  and  _750
REMARK  225  A    between atoms: _750  and  _751
REMARK  226  A    between atoms: _750  and  _753
REMARK  227  A    between atoms: _753  and  _754
REMARK  228  A    between atoms: _754  and  _755
REMARK  229  A    between atoms: _764  and  _765
REMARK  230  A    between atoms: _765  and  _766
REMARK  231  A    between atoms: _765  and  _768
REMARK  232  A    between atoms: _772  and  _773
REMARK  233  A    between atoms: _773  and  _774
REMARK  234  A    between atoms: _773  and  _776
REMARK  235  A    between atoms: _776  and  _777
REMARK  236  A    between atoms: _777  and  _778
REMARK  237  A    between atoms: _777  and  _779
REMARK  238  A    between atoms: _791  and  _792
REMARK  239  A    between atoms: _792  and  _793
REMARK  240  A    between atoms: _792  and  _795
REMARK  241  A    between atoms: _795  and  _796
REMARK  242  A    between atoms: _795  and  _797
REMARK  243  A    between atoms: _805  and  _806
REMARK  244  A    between atoms: _806  and  _807
REMARK  245  A    between atoms: _806  and  _809
REMARK  246  A    between atoms: _809  and  _810
REMARK  247  A    between atoms: _818  and  _819
REMARK  248  A    between atoms: _831  and  _832
REMARK  249  A    between atoms: _832  and  _833
REMARK  250  A    between atoms: _832  and  _835
REMARK  251  A    between atoms: _835  and  _836
REMARK  252  A    between atoms: _842  and  _843
REMARK  253  A    between atoms: _843  and  _844
REMARK  254  A    between atoms: _843  and  _846
REMARK  255  A    between atoms: _846  and  _847
REMARK  256  A    between atoms: _847  and  _848
REMARK  257  A    between atoms: _848  and  _849
REMARK  258  A    between atoms: _849  and  _850
REMARK  259  A    between atoms: _864  and  _865
REMARK  260  A    between atoms: _865  and  _866
REMARK  261  A    between atoms: _865  and  _868
REMARK  262  A    between atoms: _868  and  _869
REMARK  263  A    between atoms: _869  and  _870
REMARK  264  A    between atoms: _869  and  _871
REMARK  265  A    between atoms: _883  and  _884
REMARK  266  A    between atoms: _884  and  _885
REMARK  267  A    between atoms: _884  and  _887
REMARK  268  A    between atoms: _887  and  _888
REMARK  269  A    between atoms: _895  and  _896
REMARK  270  A    between atoms: _896  and  _897
REMARK  271  A    between atoms: _896  and  _899
REMARK  272  A    between atoms: _899  and  _900
REMARK  273  A    between atoms: _906  and  _907
REMARK  274  A    between atoms: _907  and  _908
REMARK  275  A    between atoms: _913  and  _914
REMARK  276  A    between atoms: _914  and  _915
REMARK  277  A    between atoms: _914  and  _917
REMARK  278  A    between atoms: _917  and  _918
REMARK  279  A    between atoms: _918  and  _919
REMARK  280  A    between atoms: _919  and  _920
REMARK  281  A    between atoms: _920  and  _921
REMARK  282  A    between atoms: _935  and  _936
REMARK  283  A    between atoms: _936  and  _937
REMARK  284  A    between atoms: _936  and  _939
REMARK  285  A    between atoms: _939  and  _940
REMARK  286  A    between atoms: _940  and  _941
REMARK  287  A    between atoms: _950  and  _951
REMARK  288  A    between atoms: _951  and  _952
REMARK  289  A    between atoms: _951  and  _954
REMARK  290  A    between atoms: _954  and  _955
REMARK  291  A    between atoms: _955  and  _956
REMARK  292  A    between atoms: _955  and  _957
REMARK  293  A    between atoms: _969  and  _970
REMARK  294  A    between atoms: _970  and  _971
REMARK  295  A    between atoms: _970  and  _973
REMARK  296  A    between atoms: _973  and  _974
REMARK  297  A    between atoms: _986  and  _987
REMARK  298  A    between atoms: _987  and  _988
REMARK  299  A    between atoms: _987  and  _990
REMARK  300  A    between atoms: _990  and  _991
REMARK  301  A    between atoms: _990  and  _992
REMARK  302  A    between atoms: _991  and  _993
REMARK  303  A    between atoms: _1005  and  _1006
REMARK  304  A    between atoms: _1006  and  _1007
REMARK  305  A    between atoms: _1006  and  _1009
REMARK  306  A    between atoms: _1009  and  _1010
REMARK  307  A    between atoms: _1019  and  _1020
REMARK  308  A    between atoms: _1020  and  _1021
REMARK  309  A    between atoms: _1020  and  _1023
REMARK  310  A    between atoms: _1023  and  _1024
REMARK  311  A    between atoms: _1024  and  _1025
REMARK  312  A    between atoms: _1024  and  _1026
REMARK  313  A    between atoms: _1038  and  _1039
REMARK  314  A    between atoms: _1039  and  _1040
REMARK  315  A    between atoms: _1039  and  _1042
REMARK  316  A    between atoms: _1042  and  _1043
REMARK  317  A    between atoms: _1042  and  _1044
REMARK  318  A    between atoms: _1043  and  _1045
REMARK  319  A    between atoms: _1058  and  _1059
REMARK  320  A    between atoms: _1071  and  _1072
REMARK  321  A    between atoms: _1072  and  _1073
REMARK  322  A    between atoms: _1072  and  _1075
REMARK  323  A    between atoms: _1075  and  _1076
REMARK  324  A    between atoms: _1085  and  _1086
REMARK  325  A    between atoms: _1086  and  _1087
REMARK  326  A    between atoms: _1086  and  _1089
REMARK  327  A    between atoms: _1089  and  _1090
REMARK  328  A    between atoms: _1090  and  _1091
REMARK  329  A    between atoms: _1091  and  _1092
REMARK  330  A    between atoms: _1092  and  _1093
REMARK  331  A    between atoms: _1107  and  _1108
REMARK  332  A    between atoms: _1108  and  _1109
REMARK  333  A    between atoms: _1108  and  _1111
REMARK  334  A    between atoms: _1111  and  _1112
REMARK  335  A    between atoms: _1112  and  _1113
REMARK  336  A    between atoms: _1124  and  _1125
REMARK  337  A    between atoms: _1125  and  _1126
REMARK  338  A    between atoms: _1125  and  _1128
REMARK  339  A    between atoms: _1128  and  _1129
REMARK  340  A    between atoms: _1136  and  _1137
REMARK  341  A    between atoms: _1137  and  _1138
REMARK  342  A    between atoms: _1137  and  _1140
REMARK  343  A    between atoms: _1140  and  _1141
REMARK  344  A    between atoms: _1141  and  _1142
REMARK  345  A    between atoms: _1142  and  _1143
REMARK  346  A    between atoms: _1160  and  _1161
REMARK  347  A    between atoms: _1161  and  _1162
REMARK  348  A    between atoms: _1161  and  _1164
REMARK  349  A    between atoms: _1164  and  _1165
REMARK  350  A    between atoms: _1164  and  _1166
REMARK  351  A    between atoms: _1174  and  _1175
REMARK  352  A    between atoms: _1175  and  _1176
REMARK  353  A    between atoms: _1175  and  _1178
REMARK  354  A    between atoms: _1178  and  _1179
REMARK  355  A    between atoms: _1179  and  _1180
REMARK  356  A    between atoms: _1179  and  _1181
REMARK  357  A    between atoms: _1193  and  _1194
REMARK  358  A    between atoms: _1194  and  _1195
REMARK  359  A    between atoms: _1194  and  _1197
REMARK  360  A    between atoms: _1197  and  _1198
REMARK  361  A    between atoms: _1197  and  _1199
REMARK  362  A    between atoms: _1207  and  _1208
REMARK  363  A    between atoms: _1208  and  _1209
REMARK  364  A    between atoms: _1208  and  _1211
REMARK  365  A    between atoms: _1211  and  _1212
REMARK  366  A    between atoms: _1211  and  _1213
REMARK  367  A    between atoms: _1212  and  _1214
REMARK  368  A    between atoms: _1226  and  _1227
REMARK  369  A    between atoms: _1227  and  _1228
REMARK  370  A    between atoms: _1227  and  _1230
REMARK  371  A    between atoms: _1230  and  _1231
REMARK  372  A    between atoms: _1230  and  _1232
REMARK  373  A    between atoms: _1242  and  _1243
REMARK  374  A    between atoms: _1243  and  _1244
REMARK  375  A    between atoms: _1243  and  _1246
REMARK  376  A    between atoms: _1246  and  _1247
REMARK  377  A    between atoms: _1254  and  _1255
REMARK  378  A    between atoms: _1255  and  _1256
REMARK  379  A    between atoms: _1255  and  _1258
REMARK  380  A    between atoms: _1258  and  _1259
REMARK  381  A    between atoms: _1258  and  _1260
REMARK  382  A    between atoms: _1268  and  _1269
REMARK  383  A    between atoms: _1269  and  _1270
REMARK  384  A    between atoms: _1275  and  _1276
REMARK  385  A    between atoms: _1276  and  _1277
REMARK  386  A    between atoms: _1276  and  _1279
REMARK  387  A    between atoms: _1279  and  _1280
REMARK  388  A    between atoms: _1279  and  _1281
REMARK  389  A    between atoms: _1280  and  _1282
REMARK  390  A    between atoms: _1294  and  _1295
REMARK  391  A    between atoms: _1295  and  _1296
REMARK  392  A    between atoms: _1301  and  _1302
REMARK  393  A    between atoms: _1302  and  _1303
REMARK  394  A    between atoms: _1302  and  _1305
REMARK  395  A    between atoms: _1305  and  _1306
REMARK  396  A    between atoms: _1306  and  _1307
REMARK  397  A    between atoms: _1307  and  _1308
REMARK  398  A    between atoms: _1318  and  _1319
REMARK  399  A    between atoms: _1319  and  _1320
REMARK  400  A    between atoms: _1319  and  _1322
REMARK  401  A    between atoms: _1322  and  _1323
REMARK  402  A    between atoms: _1322  and  _1324
REMARK  403  A    between atoms: _1332  and  _1333
REMARK  404  A    between atoms: _1333  and  _1334
REMARK  405  A    between atoms: _1333  and  _1336
REMARK  406  A    between atoms: _1336  and  _1337
REMARK  407  A    between atoms: _1337  and  _1338
REMARK  408  A    between atoms: _1338  and  _1339
REMARK  409  A    between atoms: _1339  and  _1340
REMARK  410  A    between atoms: _1354  and  _1355
REMARK  411  A    between atoms: _1355  and  _1356
REMARK  412  A    between atoms: _1355  and  _1358
REMARK  413  A    between atoms: _1364  and  _1365
REMARK  414  A    between atoms: _1365  and  _1366
REMARK  415  A    between atoms: _1365  and  _1368
REMARK  416  A    between atoms: _1368  and  _1369
REMARK  417  A    between atoms: _1376  and  _1377
REMARK  418  A    between atoms: _1377  and  _1378
REMARK  419  A    between atoms: _1377  and  _1380
REMARK  420  A    between atoms: _1380  and  _1381
REMARK  421  A    between atoms: _1381  and  _1382
REMARK  422  A    between atoms: _1381  and  _1383
REMARK  423  A    between atoms: _1395  and  _1396
REMARK  424  A    between atoms: _1396  and  _1399
REMARK  425  A    between atoms: _1399  and  _1400
REMARK  426  A    between atoms: _1399  and  _1401
REMARK  427  A    between atoms: _1400  and  _1402
REMARK  428  A    between atoms: _1422  and  _1425
REMARK  429  A    between atoms: _1424  and  _1428
REMARK  430  A    between atoms: _1425  and  _1427
REMARK  431  A    between atoms: _1443  and  _1444
REMARK  432  A    between atoms: _1443  and  _1446
REMARK  433  A    between atoms: _1446  and  _1447
REMARK  434  A    between atoms: _1457  and  _1458
REMARK  435  A    between atoms: _1458  and  _1459
REMARK  436  A    between atoms: _1458  and  _1461
REMARK  437  A    between atoms: _1461  and  _1462
REMARK  438  A    between atoms: _1462  and  _1463
REMARK  439  A    between atoms: _1462  and  _1464
REMARK  440  A    between atoms: _1476  and  _1477
REMARK  441  A    between atoms: _1477  and  _1478
REMARK  442  A    between atoms: _1483  and  _1484
REMARK  443  A    between atoms: _1484  and  _1485
REMARK  444  A    between atoms: _1484  and  _1487
REMARK  445  A    between atoms: _1487  and  _1488
REMARK  446  A    between atoms: _1487  and  _1489
REMARK  447  A    between atoms: _1497  and  _1498
REMARK  448  A    between atoms: _1498  and  _1499
REMARK  449  A    between atoms: _1498  and  _1501
REMARK  450  A    between atoms: _1501  and  _1502
REMARK  451  A    between atoms: _1501  and  _1503
REMARK  452  A    between atoms: _1502  and  _1504
REMARK  453  A    between atoms: _1516  and  _1517
REMARK  454  A    between atoms: _1517  and  _1518
REMARK  455  A    between atoms: _1517  and  _1520
REMARK  456  A    between atoms: _1526  and  _1527
REMARK  457  A    between atoms: _1527  and  _1528
REMARK  458  A    between atoms: _1527  and  _1530
REMARK  459  A    between atoms: _1530  and  _1531
REMARK  460  A    between atoms: _1531  and  _1532
REMARK  461  A    between atoms: _1532  and  _1533
REMARK  462  A    between atoms: _1533  and  _1534
REMARK  463  A    between atoms: _1548  and  _1549
REMARK  464  A    between atoms: _1549  and  _1550
REMARK  465  A    between atoms: _1549  and  _1552
REMARK  466  A    between atoms: _1552  and  _1553
REMARK  467  A    between atoms: _1559  and  _1560
REMARK  468  A    between atoms: _1560  and  _1561
REMARK  469  A    between atoms: _1566  and  _1567
REMARK  470  A    between atoms: _1567  and  _1568
REMARK  471  A    between atoms: _1567  and  _1570
REMARK  472  A    between atoms: _1570  and  _1571
REMARK  473  A    between atoms: _1570  and  _1572
REMARK  474  A    between atoms: _1580  and  _1581
REMARK  475  A    between atoms: _1581  and  _1582
REMARK  476  A    between atoms: _1581  and  _1584
REMARK  477  A    between atoms: _1584  and  _1585
REMARK  478  A    between atoms: _1585  and  _1586
REMARK  479  A    between atoms: _1586  and  _1587
REMARK  480  A    between atoms: _1587  and  _1588
REMARK  481  A    between atoms: _1602  and  _1603
REMARK  482  A    between atoms: _1603  and  _1604
REMARK  483  A    between atoms: _1603  and  _1606
REMARK  484  A    between atoms: _1612  and  _1613
REMARK  485  A    between atoms: _1613  and  _1614
REMARK  486  A    between atoms: _1613  and  _1616
REMARK  487  A    between atoms: _1616  and  _1617
REMARK  488  A    between atoms: _1632  and  _1633
REMARK  489  A    between atoms: _1633  and  _1634
REMARK  490  A    between atoms: _1633  and  _1636
REMARK  491  A    between atoms: _1636  and  _1637
REMARK  492  A    between atoms: _1637  and  _1638
REMARK  493  A    between atoms: _1638  and  _1639
REMARK  494  A    between atoms: _1649  and  _1650
REMARK  495  A    between atoms: _1650  and  _1651
REMARK  496  A    between atoms: _1650  and  _1653
REMARK  497  A    between atoms: _1653  and  _1654
REMARK  498  A    between atoms: _1654  and  _1655
REMARK  499  A    between atoms: _1664  and  _1665
REMARK  500  A    between atoms: _1665  and  _1666
REMARK  501  A    between atoms: _1665  and  _1668
REMARK  502  A    between atoms: _1674  and  _1675
REMARK  503  A    between atoms: _1675  and  _1676
REMARK  504  A    between atoms: _1675  and  _1678
REMARK  505  A    between atoms: _1678  and  _1679
REMARK  506  A    between atoms: _1679  and  _1680
REMARK  507  A    between atoms: _1679  and  _1681
REMARK  508  A    between atoms: _1693  and  _1694
REMARK  509  A    between atoms: _1694  and  _1695
REMARK  510  A    between atoms: _1694  and  _1697
REMARK  511  A    between atoms: _1697  and  _1698
REMARK  512  A    between atoms: _1698  and  _1699
REMARK  513  A    between atoms: _1710  and  _1711
REMARK  514  A    between atoms: _1711  and  _1712
REMARK  515  A    between atoms: _1711  and  _1714
REMARK  516  A    between atoms: _1720  and  _1721
REMARK  517  A    between atoms: _1721  and  _1722
REMARK  518  A    between atoms: _1727  and  _1728
REMARK  519  A    between atoms: _1728  and  _1729
REMARK  520  A    between atoms: _1728  and  _1731
REMARK  521  A    between atoms: _1737  and  _1738
REMARK  522  A    between atoms: _1738  and  _1739
REMARK  523  A    between atoms: _1738  and  _1741
REMARK  524  A    between atoms: _1741  and  _1742
REMARK  525  A    between atoms: _1749  and  _1750
REMARK  526  A    between atoms: _1750  and  _1751
REMARK  527  A    between atoms: _1750  and  _1753
REMARK  528  A    between atoms: _1753  and  _1754
REMARK  529  A    between atoms: _1753  and  _1755
REMARK  530  A    between atoms: _1754  and  _1756
REMARK  531  A    between atoms: _1768  and  _1769
REMARK  532  A    between atoms: _1769  and  _1772
REMARK  533  A    between atoms: _1772  and  _1773
REMARK  534  A    between atoms: _1791  and  _1793
REMARK  535  A    between atoms: _1792  and  _1794
REMARK  536  A    between atoms: _1814  and  _1815
REMARK  537  A    between atoms: _1814  and  _1817
REMARK  538  A    between atoms: _1817  and  _1818
REMARK  539  A    between atoms: _1817  and  _1819
REMARK  540  A    between atoms: _1818  and  _1820
REMARK  541  A    between atoms: _1833  and  _1834
REMARK  542  A    between atoms: _1834  and  _1835
REMARK  543  A    between atoms: _1840  and  _1841
REMARK  544  A    between atoms: _1841  and  _1842
REMARK  545  A    between atoms: _1841  and  _1844
REMARK  546  A    between atoms: _1844  and  _1845
REMARK  547  A    between atoms: _1845  and  _1846
REMARK  548  A    between atoms: _1857  and  _1858
REMARK  549  A    between atoms: _1858  and  _1859
REMARK  550  A    between atoms: _1858  and  _1861
REMARK  551  A    between atoms: _1861  and  _1862
REMARK  552  A    between atoms: _1877  and  _1878
REMARK  553  A    between atoms: _1878  and  _1879
REMARK  554  A    between atoms: _1884  and  _1885
REMARK  555  A    between atoms: _1885  and  _1886
REMARK  556  A    between atoms: _1885  and  _1888
REMARK  557  A    between atoms: _1888  and  _1889
REMARK  558  A    between atoms: _1888  and  _1890
REMARK  559  A    between atoms: _1900  and  _1901
REMARK  560  A    between atoms: _1901  and  _1902
REMARK  561  A    between atoms: _1907  and  _1908
REMARK  562  A    between atoms: _1908  and  _1909
REMARK  563  A    between atoms: _1908  and  _1911
REMARK  564  A    between atoms: _1911  and  _1912
REMARK  565  A    between atoms: _1927  and  _1928
REMARK  566  A    between atoms: _1928  and  _1929
REMARK  567  A    between atoms: _1928  and  _1931
REMARK  568  A    between atoms: _1931  and  _1932
REMARK  569  A    between atoms: _1937  and  _1938
REMARK  570  A    between atoms: _1948  and  _1949
REMARK  571  A    between atoms: _1949  and  _1950
REMARK  572  A    between atoms: _1949  and  _1952
REMARK  573  A    between atoms: _1952  and  _1953
REMARK  574  A    between atoms: _1959  and  _1960
REMARK  575  A    between atoms: _1960  and  _1961
REMARK  576  A    between atoms: _1960  and  _1963
REMARK  577  A    between atoms: _1969  and  _1970
REMARK  578  A    between atoms: _1970  and  _1971
REMARK  579  A    between atoms: _1970  and  _1973
REMARK  580  A    between atoms: _1973  and  _1974
REMARK  581  A    between atoms: _1979  and  _1980
REMARK  582  A    between atoms: _1990  and  _1991
REMARK  583  A    between atoms: _1991  and  _1992
REMARK  584  A    between atoms: _1991  and  _1994
REMARK  585  A    between atoms: _1994  and  _1995
REMARK  586  A    between atoms: _1995  and  _1996
REMARK  587  A    between atoms: _1995  and  _1997
REMARK  588  A    between atoms: _2009  and  _2010
REMARK  589  A    between atoms: _2010  and  _2011
REMARK  590  A    between atoms: _2010  and  _2013
REMARK  591  A    between atoms: _2013  and  _2014
REMARK  592  A    between atoms: _2013  and  _2015
REMARK  593  A    between atoms: _2025  and  _2026
REMARK  594  A    between atoms: _2026  and  _2027
REMARK  595  A    between atoms: _2026  and  _2029
REMARK  596  A    between atoms: _2035  and  _2036
REMARK  597  A    between atoms: _2036  and  _2037
REMARK  598  A    between atoms: _2036  and  _2039
REMARK  599  A    between atoms: _2039  and  _2040
REMARK  600  A    between atoms: _2040  and  _2041
REMARK  601  A    between atoms: _2050  and  _2051
REMARK  602  A    between atoms: _2051  and  _2052
REMARK  603  A    between atoms: _2051  and  _2054
REMARK  604  A    between atoms: _2054  and  _2055
REMARK  605  A    between atoms: _2055  and  _2056
REMARK  606  A    between atoms: _2056  and  _2057
REMARK  607  A    between atoms: _2057  and  _2058
REMARK  608  A    between atoms: _2072  and  _2073
REMARK  609  A    between atoms: _2073  and  _2074
REMARK  610  A    between atoms: _2073  and  _2076
REMARK  611  A    between atoms: _2076  and  _2077
REMARK  612  A    between atoms: _2076  and  _2078
REMARK  613  A    between atoms: _2088  and  _2089
REMARK  614  A    between atoms: _2089  and  _2090
REMARK  615  A    between atoms: _2089  and  _2092
REMARK  616  A    between atoms: _2092  and  _2093
REMARK  617  A    between atoms: _2092  and  _2094
REMARK  618  A    between atoms: _2102  and  _2103
REMARK  619  A    between atoms: _2103  and  _2104
REMARK  620  A    between atoms: _2103  and  _2106
REMARK  621  A    between atoms: _2106  and  _2107
REMARK  622  A    between atoms: _2106  and  _2108
REMARK  623  A    between atoms: _2118  and  _2119
REMARK  624  A    between atoms: _2119  and  _2120
REMARK  625  A    between atoms: _2119  and  _2122
REMARK  626  A    between atoms: _2122  and  _2123
REMARK  627  A    between atoms: _2122  and  _2124
REMARK  628  A    between atoms: _2123  and  _2125
REMARK  629  A    between atoms: _2137  and  _2138
REMARK  630  A    between atoms: _2138  and  _2139
REMARK  631  A    between atoms: _2138  and  _2141
REMARK  632  A    between atoms: _2141  and  _2142
REMARK  633  A    between atoms: _2141  and  _2143
REMARK  634  A    between atoms: _2151  and  _2152
REMARK  635  A    between atoms: _2152  and  _2153
REMARK  636  A    between atoms: _2152  and  _2155
REMARK  637  A    between atoms: _2155  and  _2156
REMARK  638  A    between atoms: _2156  and  _2157
REMARK  639  A    between atoms: _2157  and  _2158
REMARK  640  A    between atoms: _2158  and  _2159
REMARK  641  A    between atoms: _2173  and  _2174
REMARK  642  A    between atoms: _2174  and  _2175
REMARK  643  A    between atoms: _2174  and  _2177
REMARK  644  A    between atoms: _2177  and  _2178
REMARK  645  A    between atoms: _2190  and  _2191
REMARK  646  A    between atoms: _2191  and  _2192
REMARK  647  A    between atoms: _2191  and  _2194
REMARK  648  A    between atoms: _2194  and  _2195
REMARK  649  A    between atoms: _2204  and  _2205
REMARK  650  A    between atoms: _2205  and  _2206
REMARK  651  A    between atoms: _2205  and  _2208
REMARK  652  A    between atoms: _2208  and  _2209
REMARK  653  A    between atoms: _2216  and  _2217
REMARK  654  A    between atoms: _2217  and  _2218
REMARK  655  A    between atoms: _2217  and  _2220
REMARK  656  A    between atoms: _2220  and  _2221
REMARK  657  A    between atoms: _2228  and  _2229
REMARK  658  A    between atoms: _2229  and  _2230
REMARK  659  A    between atoms: _2229  and  _2232
REMARK  660  A    between atoms: _2232  and  _2233
REMARK  661  A    between atoms: _2233  and  _2234
REMARK  662  A    between atoms: _2243  and  _2244
REMARK  663  A    between atoms: _2244  and  _2245
REMARK  664  A    between atoms: _2244  and  _2247
REMARK  665  A    between atoms: _2247  and  _2248
REMARK  666  A    between atoms: _2248  and  _2249
REMARK  667  A    between atoms: _2260  and  _2261
REMARK  668  A    between atoms: _2261  and  _2262
REMARK  669  A    between atoms: _2261  and  _2264
REMARK  670  A    between atoms: _2264  and  _2265
REMARK  671  A    between atoms: _2270  and  _2271
REMARK  672  A    between atoms: _2281  and  _2282
REMARK  673  A    between atoms: _2282  and  _2283
REMARK  674  A    between atoms: _2282  and  _2285
REMARK  675  A    between atoms: _2291  and  _2292
REMARK  676  A    between atoms: _2292  and  _2293
REMARK  677  A    between atoms: _2292  and  _2295
REMARK  678  A    between atoms: _2295  and  _2296
REMARK  679  A    between atoms: _2315  and  _2316
REMARK  680  A    between atoms: _2316  and  _2317
REMARK  681  A    between atoms: _2316  and  _2319
REMARK  682  A    between atoms: _2319  and  _2320
REMARK  683  A    between atoms: _2320  and  _2321
REMARK  684  A    between atoms: _2330  and  _2331
REMARK  685  A    between atoms: _2331  and  _2332
REMARK  686  A    between atoms: _2331  and  _2334
REMARK  687  A    between atoms: _2334  and  _2335
REMARK  688  A    between atoms: _2341  and  _2342
REMARK  689  A    between atoms: _2342  and  _2343
REMARK  690  A    between atoms: _2342  and  _2345
REMARK  691  A    between atoms: _2345  and  _2346
REMARK  692  A    between atoms: _2352  and  _2353
REMARK  693  A    between atoms: _2353  and  _2354
REMARK  694  A    between atoms: _2353  and  _2356
REMARK  695  A    between atoms: _2362  and  _2363
REMARK  696  A    between atoms: _2363  and  _2364
REMARK  697  A    between atoms: _2369  and  _2370
REMARK  698  A    between atoms: _2370  and  _2371
REMARK  699  A    between atoms: _2376  and  _2377
REMARK  700  A    between atoms: _2377  and  _2378
REMARK  701  A    between atoms: _2377  and  _2380
REMARK  702  A    between atoms: _2380  and  _2381
REMARK  703  A    between atoms: _2387  and  _2388
REMARK  704  A    between atoms: _2388  and  _2389
REMARK  705  A    between atoms: _2388  and  _2391
REMARK  706  A    between atoms: _2391  and  _2392
REMARK  707  A    between atoms: _2407  and  _2408
REMARK  708  A    between atoms: _2408  and  _2409
REMARK  709  A    between atoms: _2408  and  _2411
REMARK  710  A    between atoms: _2411  and  _2412
REMARK  711  A    between atoms: _2411  and  _2413
REMARK  712  A    between atoms: _2421  and  _2422
REMARK  713  A    between atoms: _2422  and  _2423
REMARK  714  A    between atoms: _2422  and  _2425
REMARK  715  A    between atoms: _2425  and  _2426
REMARK  716  A    between atoms: _2425  and  _2427
REMARK  717  A    between atoms: _2437  and  _2438
REMARK  718  A    between atoms: _2438  and  _2439
REMARK  719  A    between atoms: _2438  and  _2441
REMARK  720  A    between atoms: _2441  and  _2442
REMARK  721  A    between atoms: _2442  and  _2443
REMARK  722  A    between atoms: _2443  and  _2444
REMARK  723  A    between atoms: _2461  and  _2462
REMARK  724  A    between atoms: _2462  and  _2463
REMARK  725  A    between atoms: _2462  and  _2465
REMARK  726  A    between atoms: _2465  and  _2466
REMARK  727  A    between atoms: _2465  and  _2467
REMARK  728  A    between atoms: _2475  and  _2476
REMARK  729  A    between atoms: _2476  and  _2477
REMARK  730  A    between atoms: _2476  and  _2479
REMARK  731  A    between atoms: _2479  and  _2480
REMARK  732  A    between atoms: _2487  and  _2488
REMARK  733  A    between atoms: _2488  and  _2489
REMARK  734  A    between atoms: _2488  and  _2491
REMARK  735  A    between atoms: _2491  and  _2492
REMARK  736  A    between atoms: _2491  and  _2493
REMARK  737  A    between atoms: _2501  and  _2502
REMARK  738  A    between atoms: _2502  and  _2503
REMARK  739  A    between atoms: _2508  and  _2509
REMARK  740  A    between atoms: _2509  and  _2510
REMARK  741  A    between atoms: _2509  and  _2512
REMARK  742  A    between atoms: _2512  and  _2513
REMARK  743  A    between atoms: _2513  and  _2514
REMARK  744  A    between atoms: _2524  and  _2525
REMARK  745  A    between atoms: _2537  and  _2538
REMARK  746  A    between atoms: _2538  and  _2539
REMARK  747  A    between atoms: _2538  and  _2541
REMARK  748  A    between atoms: _2541  and  _2542
REMARK  749  A    between atoms: _2542  and  _2543
REMARK  750  A    between atoms: _2543  and  _2544
REMARK  751  A    between atoms: _2554  and  _2555
REMARK  752  A    between atoms: _2555  and  _2556
REMARK  753  A    between atoms: _2561  and  _2562
REMARK  754  A    between atoms: _2562  and  _2563
REMARK  755  A    between atoms: _2562  and  _2565
REMARK  756  A    between atoms: _2565  and  _2566
REMARK  757  A    between atoms: _2566  and  _2567
REMARK  758  A    between atoms: _2567  and  _2568
REMARK  759  A    between atoms: _2585  and  _2586
REMARK  760  A    between atoms: _2586  and  _2587
REMARK  761  A    between atoms: _2592  and  _2593
REMARK  762  A    between atoms: _2593  and  _2594
REMARK  763  A    between atoms: _2593  and  _2596
REMARK  764  A    between atoms: _2596  and  _2597
REMARK  765  A    between atoms: _2596  and  _2598
REMARK  766  A    between atoms: _2606  and  _2607
REMARK  767  A    between atoms: _2607  and  _2608
REMARK  768  A    between atoms: _2607  and  _2610
REMARK  769  A    between atoms: _2610  and  _2611
REMARK  770  A    between atoms: _2611  and  _2612
REMARK  771  A    between atoms: _2612  and  _2613
REMARK  772  A    between atoms: _2613  and  _2614
REMARK  773  A    between atoms: _2628  and  _2629
REMARK  774  A    between atoms: _2629  and  _2630
REMARK  775  A    between atoms: _2629  and  _2632
REMARK  776  A    between atoms: _2632  and  _2633
REMARK  777  A    between atoms: _2632  and  _2634
REMARK  778  A    between atoms: _2644  and  _2645
REMARK  779  A    between atoms: _2645  and  _2646
REMARK  780  A    between atoms: _2645  and  _2648
REMARK  781  A    between atoms: _2648  and  _2649
REMARK  782  A    between atoms: _2648  and  _2650
REMARK  783  A    between atoms: _2649  and  _2651
REMARK  784  A    between atoms: _2663  and  _2664
REMARK  785  A    between atoms: _2664  and  _2665
REMARK  786  A    between atoms: _2664  and  _2667
REMARK  787  A    between atoms: _2667  and  _2668
REMARK  788  A    between atoms: _2668  and  _2669
REMARK  789  A    between atoms: _2668  and  _2670
REMARK  790  A    between atoms: _2682  and  _2683
REMARK  791  A    between atoms: _2683  and  _2684
REMARK  792  A    between atoms: _2683  and  _2686
REMARK  793  A    between atoms: _2686  and  _2687
REMARK  794  A    between atoms: _2699  and  _2700
REMARK  795  A    between atoms: _2700  and  _2701
REMARK  796  A    between atoms: _2700  and  _2703
REMARK  797  A    between atoms: _2703  and  _2704
REMARK  798  A    between atoms: _2704  and  _2705
REMARK  799  A    between atoms: _2704  and  _2706
REMARK  800  A    between atoms: _2718  and  _2719
REMARK  801  A    between atoms: _2719  and  _2720
REMARK  802  A    between atoms: _2719  and  _2722
REMARK  803  A    between atoms: _2722  and  _2723
REMARK  804  A    between atoms: _2723  and  _2724
REMARK  805  A    between atoms: _2724  and  _2725
REMARK  806  A    between atoms: _2725  and  _2726
REMARK  807  A    between atoms: _2740  and  _2741
REMARK  808  A    between atoms: _2741  and  _2742
REMARK  809  A    between atoms: _2741  and  _2744
REMARK  810  A    between atoms: _2744  and  _2745
REMARK  811  A    between atoms: _2745  and  _2746
REMARK  812  A    between atoms: _2755  and  _2756
REMARK  813  A    between atoms: _2756  and  _2757
REMARK  814  A    between atoms: _2756  and  _2759
REMARK  815  A    between atoms: _2759  and  _2760
REMARK  816  A    between atoms: _2767  and  _2768
REMARK  817  A    between atoms: _2768  and  _2769
REMARK  818  A    between atoms: _2768  and  _2771
REMARK  819  A    between atoms: _2771  and  _2772
REMARK  820  A    between atoms: _2772  and  _2773
REMARK  821  A    between atoms: _2784  and  _2785
REMARK  822  A    between atoms: _2785  and  _2786
REMARK  823  A    between atoms: _2785  and  _2788
REMARK  824  A    between atoms: _2788  and  _2789
REMARK  825  A    between atoms: _2788  and  _2790
REMARK  826  A    between atoms: _2798  and  _2799
REMARK  827  A    between atoms: _2799  and  _2800
REMARK  828  A    between atoms: _2799  and  _2802
REMARK  829  A    between atoms: _2802  and  _2803
REMARK  830  A    between atoms: _2803  and  _2804
REMARK  831  A    between atoms: _2813  and  _2814
REMARK  832  A    between atoms: _2814  and  _2815
REMARK  833  A    between atoms: _2814  and  _2817
REMARK  834  A    between atoms: _2817  and  _2818
REMARK  835  A    between atoms: _2823  and  _2824
REMARK  836  A    between atoms: _2834  and  _2835
REMARK  837  A    between atoms: _2835  and  _2838
REMARK  838  A    between atoms: _2838  and  _2839
REMARK  839  A    between atoms: _2839  and  _2840
REMARK  840  A    between atoms: _2839  and  _2841
REMARK  841  A    between atoms: _2884  and  _2885
REMARK  842  A    between atoms: _2884  and  _2887
REMARK  843  A    between atoms: _2887  and  _2888
REMARK  844  A    between atoms: _2888  and  _2889
REMARK  845  A    between atoms: _2899  and  _2900
REMARK  846  A    between atoms: _2900  and  _2901
REMARK  847  A    between atoms: _2900  and  _2903
REMARK  848  A    between atoms: _2903  and  _2904
REMARK  849  A    between atoms: _2904  and  _2905
REMARK  850  A    between atoms: _2905  and  _2906
REMARK  851  A    between atoms: _2923  and  _2924
REMARK  852  A    between atoms: _2924  and  _2925
REMARK  853  A    between atoms: _2924  and  _2927
REMARK  854  A    between atoms: _2927  and  _2928
REMARK  855  A    between atoms: _2928  and  _2929
REMARK  856  A    between atoms: _2929  and  _2930
REMARK  857  A    between atoms: _2947  and  _2948
REMARK  858  A    between atoms: _2948  and  _2949
REMARK  859  A    between atoms: _2948  and  _2951
REMARK  860  A    between atoms: _2951  and  _2952
REMARK  861  A    between atoms: _2951  and  _2953
REMARK  862  A    between atoms: _2952  and  _2954
REMARK  863  A    between atoms: _2966  and  _2967
REMARK  864  A    between atoms: _2967  and  _2968
REMARK  865  A    between atoms: _2967  and  _2970
REMARK  866  A    between atoms: _2970  and  _2971
REMARK  867  A    between atoms: _2971  and  _2972
REMARK  868  A    between atoms: _2972  and  _2973
REMARK  869  A    between atoms: _2973  and  _2974
REMARK  870  A    between atoms: _2988  and  _2989
REMARK  871  A    between atoms: _2989  and  _2990
REMARK  872  A    between atoms: _2989  and  _2992
REMARK  873  A    between atoms: _2992  and  _2993
REMARK  874  A    between atoms: _2993  and  _2994
REMARK  875  A    between atoms: _3003  and  _3004
REMARK  876  A    between atoms: _3004  and  _3005
REMARK  877  A    between atoms: _3004  and  _3007
REMARK  878  A    between atoms: _3007  and  _3008
REMARK  879  A    between atoms: _3007  and  _3009
REMARK  880  A    between atoms: _3008  and  _3010
REMARK  881  A    between atoms: _3022  and  _3023
REMARK  882  A    between atoms: _3023  and  _3024
REMARK  883  A    between atoms: _3023  and  _3026
REMARK  884  A    between atoms: _3026  and  _3027
REMARK  885  A    between atoms: _3026  and  _3028
REMARK  886  A    between atoms: _3038  and  _3039
REMARK  887  A    between atoms: _3039  and  _3040
REMARK  888  A    between atoms: _3039  and  _3042
REMARK  889  A    between atoms: _3042  and  _3043
REMARK  890  A    between atoms: _3043  and  _3044
REMARK  891  A    between atoms: _3044  and  _3045
REMARK  892  A    between atoms: _3045  and  _3046
REMARK  893  A    between atoms: _3060  and  _3061
REMARK  894  A    between atoms: _3061  and  _3062
REMARK  895  A    between atoms: _3061  and  _3064
REMARK  896  A    between atoms: _3064  and  _3065
REMARK  897  A    between atoms: _3065  and  _3066
REMARK  898  A    between atoms: _3066  and  _3067
REMARK  899  A    between atoms: _3067  and  _3068
REMARK  900  A    between atoms: _3082  and  _3083
REMARK  901  A    between atoms: _3083  and  _3084
REMARK  902  A    between atoms: _3083  and  _3086
REMARK  903  A    between atoms: _3086  and  _3087
REMARK  904  A    between atoms: _3099  and  _3100
REMARK  905  A    between atoms: _3100  and  _3101
REMARK  906  A    between atoms: _3100  and  _3103
REMARK  907  A    between atoms: _3103  and  _3104
REMARK  908  A    between atoms: _3110  and  _3111
REMARK  909  A    between atoms: _3111  and  _3112
REMARK  910  A    between atoms: _3111  and  _3114
REMARK  911  A    between atoms: _3114  and  _3115
REMARK  912  A    between atoms: _3115  and  _3116
REMARK  913  A    between atoms: _3127  and  _3128
REMARK  914  A    between atoms: _3128  and  _3129
REMARK  915  A    between atoms: _3128  and  _3131
REMARK  916  A    between atoms: _3131  and  _3132
REMARK  917  A    between atoms: _3147  and  _3148
REMARK  918  A    between atoms: _3148  and  _3149
REMARK  919  A    between atoms: _3148  and  _3151
REMARK  920  A    between atoms: _3151  and  _3152
REMARK  921  A    between atoms: _3151  and  _3153
REMARK  922  A    between atoms: _3152  and  _3154
REMARK  923  A    between atoms: _3166  and  _3167
REMARK  924  A    between atoms: _3167  and  _3168
REMARK  925  A    between atoms: _3173  and  _3174
REMARK  926  A    between atoms: _3174  and  _3175
REMARK  927  A    between atoms: _3174  and  _3177
REMARK  928  A    between atoms: _3177  and  _3178
REMARK  929  A    between atoms: _3183  and  _3184
REMARK  930  A    between atoms: _3195  and  _3196
REMARK  931  A    between atoms: _3208  and  _3209
REMARK  932  A    between atoms: _3209  and  _3210
REMARK  933  A    between atoms: _3209  and  _3212
REMARK  934  A    between atoms: _3212  and  _3213
REMARK  935  A    between atoms: _3212  and  _3214
REMARK  936  A    between atoms: _3213  and  _3215
REMARK  937  A    between atoms: _3227  and  _3228
REMARK  938  A    between atoms: _3228  and  _3229
REMARK  939  A    between atoms: _3228  and  _3231
REMARK  940  A    between atoms: _3231  and  _3232
REMARK  941  A    between atoms: _3231  and  _3233
REMARK  942  A    between atoms: _3241  and  _3242
REMARK  943  A    between atoms: _3242  and  _3243
REMARK  944  A    between atoms: _3242  and  _3245
REMARK  945  A    between atoms: _3245  and  _3246
REMARK  946  A    between atoms: _3246  and  _3247
REMARK  947  A    between atoms: _3246  and  _3248
REMARK  948  A    between atoms: _3260  and  _3261
REMARK  949  A    between atoms: _3261  and  _3262
REMARK  950  A    between atoms: _3261  and  _3264
REMARK  951  A    between atoms: _3264  and  _3265
REMARK  952  A    between atoms: _3280  and  _3281
REMARK  953  A    between atoms: _3281  and  _3282
REMARK  954  A    between atoms: _3281  and  _3284
REMARK  955  A    between atoms: _3284  and  _3285
REMARK  956  A    between atoms: _3284  and  _3286
REMARK  957  A    between atoms: _3296  and  _3297
REMARK  958  A    between atoms: _3297  and  _3298
REMARK  959  A    between atoms: _3297  and  _3300
REMARK  960  A    between atoms: _3300  and  _3301
REMARK  961  A    between atoms: _3301  and  _3302
REMARK                            x       y       z     vdW  Elec       q    Type
REMARK                         _______ _______ _______ _____ _____    ______ ____
ROOT
ATOM      1  H   UNK     1       7.463  36.735  39.414  0.00  0.00    +0.000 HD
ENDROOT
TORSDOF 0
REMARK  Name = /Users/mlugowska/PhD/ML_residence_time_prediction/protein_files/5J20_protein.pdb
REMARK  961 active torsions:
REMARK  status: ('A' for Active; 'I' for Inactive)
REMARK    1  A    between atoms: _2  and  _3
REMARK    2  A    between atoms: _2  and  _5
REMARK    3  A    between atoms: _10  and  _11
REMARK    4  A    between atoms: _11  and  _12
REMARK    5  A    between atoms: _11  and  _14
REMARK    6  A    between atoms: _14  and  _15
REMARK    7  A    between atoms: _14  and  _16
REMARK    8  A    between atoms: _26  and  _27
REMARK    9  A    between atoms: _27  and  _28
REMARK   10  A    between atoms: _27  and  _30
REMARK   11  A    between atoms: _30  and  _31
REMARK   12  A    between atoms: _31  and  _32
REMARK   13  A    between atoms: _41  and  _42
REMARK   14  A    between atoms: _42  and  _43
REMARK   15  A    between atoms: _42  and  _45
REMARK   16  A    between atoms: _45  and  _46
REMARK   17  A    between atoms: _45  and  _47
REMARK   18  A    between atoms: _55  and  _56
REMARK   19  A    between atoms: _56  and  _57
REMARK   20  A    between atoms: _56  and  _59
REMARK   21  A    between atoms: _59  and  _60
REMARK   22  A    between atoms: _75  and  _76
REMARK   23  A    between atoms: _76  and  _77
REMARK   24  A    between atoms: _76  and  _79
REMARK   25  A    between atoms: _85  and  _86
REMARK   26  A    between atoms: _86  and  _87
REMARK   27  A    between atoms: _86  and  _89
REMARK   28  A    between atoms: _89  and  _90
REMARK   29  A    between atoms: _105  and  _106
REMARK   30  A    between atoms: _106  and  _107
REMARK   31  A    between atoms: _106  and  _109
REMARK   32  A    between atoms: _109  and  _110
REMARK   33  A    between atoms: _110  and  _111
REMARK   34  A    between atoms: _122  and  _123
REMARK   35  A    between atoms: _123  and  _124
REMARK   36  A    between atoms: _123  and  _126
REMARK   37  A    between atoms: _132  and  _133
REMARK   38  A    between atoms: _133  and  _134
REMARK   39  A    between atoms: _133  and  _136
REMARK   40  A    between atoms: _136  and  _137
REMARK   41  A    between atoms: _137  and  _138
REMARK   42  A    between atoms: _147  and  _148
REMARK   43  A    between atoms: _148  and  _149
REMARK   44  A    between atoms: _148  and  _151
REMARK   45  A    between atoms: _151  and  _152
REMARK   46  A    between atoms: _151  and  _153
REMARK   47  A    between atoms: _152  and  _154
REMARK   48  A    between atoms: _166  and  _167
REMARK   49  A    between atoms: _167  and  _168
REMARK   50  A    between atoms: _167  and  _170
REMARK   51  A    between atoms: _176  and  _177
REMARK   52  A    between atoms: _177  and  _178
REMARK   53  A    between atoms: _177  and  _180
REMARK   54  A    between atoms: _180  and  _181
REMARK   55  A    between atoms: _181  and  _182
REMARK   56  A    between atoms: _193  and  _194
REMARK   57  A    between atoms: _194  and  _195
REMARK   58  A    between atoms: _194  and  _197
REMARK   59  A    between atoms: _197  and  _198
REMARK   60  A    between atoms: _198  and  _199
REMARK   61  A    between atoms: _198  and  _200
REMARK   62  A    between atoms: _212  and  _213
REMARK   63  A    between atoms: _213  and  _214
REMARK   64  A    between atoms: _213  and  _216
REMARK   65  A    between atoms: _216  and  _217
REMARK   66  A    between atoms: _217  and  _218
REMARK   67  A    between atoms: _218  and  _219
REMARK   68  A    between atoms: _229  and  _230
REMARK   69  A    between atoms: _230  and  _231
REMARK   70  A    between atoms: _230  and  _233
REMARK   71  A    between atoms: _233  and  _234
REMARK   72  A    between atoms: _240  and  _241
REMARK   73  A    between atoms: _241  and  _242
REMARK   74  A    between atoms: _241  and  _244
REMARK   75  A    between atoms: _244  and  _245
REMARK   76  A    between atoms: _245  and  _246
REMARK   77  A    between atoms: _245  and  _247
REMARK   78  A    between atoms: _259  and  _260
REMARK   79  A    between atoms: _260  and  _261
REMARK   80  A    between atoms: _260  and  _263
REMARK   81  A    between atoms: _263  and  _264
REMARK   82  A    between atoms: _263  and  _265
REMARK   83  A    between atoms: _264  and  _266
REMARK   84  A    between atoms: _278  and  _279
REMARK   85  A    between atoms: _279  and  _280
REMARK   86  A    between atoms: _279  and  _282
REMARK   87  A    between atoms: _282  and  _283
REMARK   88  A    between atoms: _282  and  _284
REMARK   89  A    between atoms: _283  and  _285
REMARK   90  A    between atoms: _297  and  _298
REMARK   91  A    between atoms: _298  and  _299
REMARK   92  A    between atoms: _298  and  _301
REMARK   93  A    between atoms: _301  and  _302
REMARK   94  A    between atoms: _311  and  _312
REMARK   95  A    between atoms: _312  and  _313
REMARK   96  A    between atoms: _312  and  _315
REMARK   97  A    between atoms: _315  and  _316
REMARK   98  A    between atoms: _315  and  _317
REMARK   99  A    between atoms: _325  and  _326
REMARK  100  A    between atoms: _326  and  _327
REMARK  101  A    between atoms: _326  and  _329
REMARK  102  A    between atoms: _329  and  _330
REMARK  103  A    between atoms: _345  and  _346
REMARK  104  A    between atoms: _346  and  _347
REMARK  105  A    between atoms: _346  and  _349
REMARK  106  A    between atoms: _349  and  _350
REMARK  107  A    between atoms: _355  and  _356
REMARK  108  A    between atoms: _366  and  _367
REMARK  109  A    between atoms: _367  and  _368
REMARK  110  A    between atoms: _367  and  _370
REMARK  111  A    between atoms: _370  and  _371
REMARK  112  A    between atoms: _377  and  _378
REMARK  113  A    between atoms: _378  and  _379
REMARK  114  A    between atoms: _378  and  _381
REMARK  115  A    between atoms: _381  and  _382
REMARK  116  A    between atoms: _391  and  _392
REMARK  117  A    between atoms: _392  and  _393
REMARK  118  A    between atoms: _392  and  _395
REMARK  119  A    between atoms: _395  and  _396
REMARK  120  A    between atoms: _396  and  _397
REMARK  121  A    between atoms: _397  and  _398
REMARK  122  A    between atoms: _398  and  _399
REMARK  123  A    between atoms: _413  and  _414
REMARK  124  A    between atoms: _414  and  _415
REMARK  125  A    between atoms: _414  and  _417
REMARK  126  A    between atoms: _417  and  _418
REMARK  127  A    between atoms: _418  and  _419
REMARK  128  A    between atoms: _428  and  _429
REMARK  129  A    between atoms: _429  and  _430
REMARK  130  A    between atoms: _429  and  _432
REMARK  131  A    between atoms: _432  and  _433
REMARK  132  A    between atoms: _432  and  _434
REMARK  133  A    between atoms: _433  and  _435
REMARK  134  A    between atoms: _447  and  _448
REMARK  135  A    between atoms: _448  and  _449
REMARK  136  A    between atoms: _448  and  _451
REMARK  137  A    between atoms: _451  and  _452
REMARK  138  A    between atoms: _467  and  _468
REMARK  139  A    between atoms: _468  and  _469
REMARK  140  A    between atoms: _468  and  _471
REMARK  141  A    between atoms: _471  and  _472
REMARK  142  A    between atoms: _472  and  _473
REMARK  143  A    between atoms: _472  and  _474
REMARK  144  A    between atoms: _486  and  _487
REMARK  145  A    between atoms: _487  and  _488
REMARK  146  A    between atoms: _487  and  _490
REMARK  147  A    between atoms: _490  and  _491
REMARK  148  A    between atoms: _491  and  _492
REMARK  149  A    between atoms: _492  and  _493
REMARK  150  A    between atoms: _510  and  _511
REMARK  151  A    between atoms: _511  and  _512
REMARK  152  A    between atoms: _511  and  _514
REMARK  153  A    between atoms: _514  and  _515
REMARK  154  A    between atoms: _515  and  _516
REMARK  155  A    between atoms: _525  and  _526
REMARK  156  A    between atoms: _526  and  _527
REMARK  157  A    between atoms: _526  and  _529
REMARK  158  A    between atoms: _529  and  _530
REMARK  159  A    between atoms: _530  and  _531
REMARK  160  A    between atoms: _530  and  _532
REMARK  161  A    between atoms: _544  and  _545
REMARK  162  A    between atoms: _545  and  _546
REMARK  163  A    between atoms: _545  and  _548
REMARK  164  A    between atoms: _548  and  _549
REMARK  165  A    between atoms: _548  and  _550
REMARK  166  A    between atoms: _549  and  _551
REMARK  167  A    between atoms: _563  and  _564
REMARK  168  A    between atoms: _564  and  _565
REMARK  169  A    between atoms: _564  and  _567
REMARK  170  A    between atoms: _567  and  _568
REMARK  171  A    between atoms: _574  and  _575
REMARK  172  A    between atoms: _575  and  _576
REMARK  173  A    between atoms: _575  and  _578
REMARK  174  A    between atoms: _578  and  _579
REMARK  175  A    between atoms: _588  and  _589
REMARK  176  A    between atoms: _589  and  _590
REMARK  177  A    between atoms: _589  and  _592
REMARK  178  A    between atoms: _592  and  _593
REMARK  179  A    between atoms: _599  and  _600
REMARK  180  A    between atoms: _600  and  _601
REMARK  181  A    between atoms: _600  and  _603
REMARK  182  A    between atoms: _603  and  _604
REMARK  183  A    between atoms: _610  and  _611
REMARK  184  A    between atoms: _611  and  _612
REMARK  185  A    between atoms: _611  and  _614
REMARK  186  A    between atoms: _614  and  _615
REMARK  187  A    between atoms: _622  and  _623
REMARK  188  A    between atoms: _623  and  _624
REMARK  189  A    between atoms: _623  and  _626
REMARK  190  A    between atoms: _632  and  _633
REMARK  191  A    between atoms: _633  and  _634
REMARK  192  A    between atoms: _633  and  _636
REMARK  193  A    between atoms: _636  and  _637
REMARK  194  A    between atoms: _637  and  _638
REMARK  195  A    between atoms: _637  and  _639
REMARK  196  A    between atoms: _651  and  _652
REMARK  197  A    between atoms: _652  and  _653
REMARK  198  A    between atoms: _652  and  _655
REMARK  199  A    between atoms: _655  and  _656
REMARK  200  A    between atoms: _663  and  _664
REMARK  201  A    between atoms: _664  and  _665
REMARK  202  A    between atoms: _664  and  _667
REMARK  203  A    between atoms: _667  and  _668
REMARK  204  A    between atoms: _668  and  _669
REMARK  205  A    between atoms: _669  and  _670
REMARK  206  A    between atoms: _670  and  _671
REMARK  207  A    between atoms: _685  and  _686
REMARK  208  A    between atoms: _686  and  _687
REMARK  209  A    between atoms: _686  and  _689
REMARK  210  A    between atoms: _689  and  _690
REMARK  211  A    between atoms: _689  and  _691
REMARK  212  A    between atoms: _690  and  _692
REMARK  213  A    between atoms: _704  and  _705
REMARK  214  A    between atoms: _705  and  _706
REMARK  215  A    between atoms: _705  and  _708
REMARK  216  A    between atoms: _708  and  _709
REMARK  217  A    between atoms: _709  and  _710
REMARK  218  A    between atoms: _710  and  _711
REMARK  219  A    between atoms: _728  and  _729
REMARK  220  A    between atoms: _729  and  _730
REMARK  221  A    between atoms: _729  and  _732
REMARK  222  A    between atoms: _732  and  _733
REMARK  223  A    between atoms: _738  and  _739
REMARK  224  A    between atoms: _749  and  _750
REMARK  225  A    between atoms: _750  and  _751
REMARK  226  A    between atoms: _750  and  _753
REMARK  227  A    between atoms: _753  and  _754
REMARK  228  A    between atoms: _754  and  _755
REMARK  229  A    between atoms: _764  and  _765
REMARK  230  A    between atoms: _765  and  _766
REMARK  231  A    between atoms: _765  and  _768
REMARK  232  A    between atoms: _772  and  _773
REMARK  233  A    between atoms: _773  and  _774
REMARK  234  A    between atoms: _773  and  _776
REMARK  235  A    between atoms: _776  and  _777
REMARK  236  A    between atoms: _777  and  _778
REMARK  237  A    between atoms: _777  and  _779
REMARK  238  A    between atoms: _791  and  _792
REMARK  239  A    between atoms: _792  and  _793
REMARK  240  A    between atoms: _792  and  _795
REMARK  241  A    between atoms: _795  and  _796
REMARK  242  A    between atoms: _795  and  _797
REMARK  243  A    between atoms: _805  and  _806
REMARK  244  A    between atoms: _806  and  _807
REMARK  245  A    between atoms: _806  and  _809
REMARK  246  A    between atoms: _809  and  _810
REMARK  247  A    between atoms: _818  and  _819
REMARK  248  A    between atoms: _831  and  _832
REMARK  249  A    between atoms: _832  and  _833
REMARK  250  A    between atoms: _832  and  _835
REMARK  251  A    between atoms: _835  and  _836
REMARK  252  A    between atoms: _842  and  _843
REMARK  253  A    between atoms: _843  and  _844
REMARK  254  A    between atoms: _843  and  _846
REMARK  255  A    between atoms: _846  and  _847
REMARK  256  A    between atoms: _847  and  _848
REMARK  257  A    between atoms: _848  and  _849
REMARK  258  A    between atoms: _849  and  _850
REMARK  259  A    between atoms: _864  and  _865
REMARK  260  A    between atoms: _865  and  _866
REMARK  261  A    between atoms: _865  and  _868
REMARK  262  A    between atoms: _868  and  _869
REMARK  263  A    between atoms: _869  and  _870
REMARK  264  A    between atoms: _869  and  _871
REMARK  265  A    between atoms: _883  and  _884
REMARK  266  A    between atoms: _884  and  _885
REMARK  267  A    between atoms: _884  and  _887
REMARK  268  A    between atoms: _887  and  _888
REMARK  269  A    between atoms: _895  and  _896
REMARK  270  A    between atoms: _896  and  _897
REMARK  271  A    between atoms: _896  and  _899
REMARK  272  A    between atoms: _899  and  _900
REMARK  273  A    between atoms: _906  and  _907
REMARK  274  A    between atoms: _907  and  _908
REMARK  275  A    between atoms: _913  and  _914
REMARK  276  A    between atoms: _914  and  _915
REMARK  277  A    between atoms: _914  and  _917
REMARK  278  A    between atoms: _917  and  _918
REMARK  279  A    between atoms: _918  and  _919
REMARK  280  A    between atoms: _919  and  _920
REMARK  281  A    between atoms: _920  and  _921
REMARK  282  A    between atoms: _935  and  _936
REMARK  283  A    between atoms: _936  and  _937
REMARK  284  A    between atoms: _936  and  _939
REMARK  285  A    between atoms: _939  and  _940
REMARK  286  A    between atoms: _940  and  _941
REMARK  287  A    between atoms: _950  and  _951
REMARK  288  A    between atoms: _951  and  _952
REMARK  289  A    between atoms: _951  and  _954
REMARK  290  A    between atoms: _954  and  _955
REMARK  291  A    between atoms: _955  and  _956
REMARK  292  A    between atoms: _955  and  _957
REMARK  293  A    between atoms: _969  and  _970
REMARK  294  A    between atoms: _970  and  _971
REMARK  295  A    between atoms: _970  and  _973
REMARK  296  A    between atoms: _973  and  _974
REMARK  297  A    between atoms: _986  and  _987
REMARK  298  A    between atoms: _987  and  _988
REMARK  299  A    between atoms: _987  and  _990
REMARK  300  A    between atoms: _990  and  _991
REMARK  301  A    between atoms: _990  and  _992
REMARK  302  A    between atoms: _991  and  _993
REMARK  303  A    between atoms: _1005  and  _1006
REMARK  304  A    between atoms: _1006  and  _1007
REMARK  305  A    between atoms: _1006  and  _1009
REMARK  306  A    between atoms: _1009  and  _1010
REMARK  307  A    between atoms: _1019  and  _1020
REMARK  308  A    between atoms: _1020  and  _1021
REMARK  309  A    between atoms: _1020  and  _1023
REMARK  310  A    between atoms: _1023  and  _1024
REMARK  311  A    between atoms: _1024  and  _1025
REMARK  312  A    between atoms: _1024  and  _1026
REMARK  313  A    between atoms: _1038  and  _1039
REMARK  314  A    between atoms: _1039  and  _1040
REMARK  315  A    between atoms: _1039  and  _1042
REMARK  316  A    between atoms: _1042  and  _1043
REMARK  317  A    between atoms: _1042  and  _1044
REMARK  318  A    between atoms: _1043  and  _1045
REMARK  319  A    between atoms: _1058  and  _1059
REMARK  320  A    between atoms: _1071  and  _1072
REMARK  321  A    between atoms: _1072  and  _1073
REMARK  322  A    between atoms: _1072  and  _1075
REMARK  323  A    between atoms: _1075  and  _1076
REMARK  324  A    between atoms: _1085  and  _1086
REMARK  325  A    between atoms: _1086  and  _1087
REMARK  326  A    between atoms: _1086  and  _1089
REMARK  327  A    between atoms: _1089  and  _1090
REMARK  328  A    between atoms: _1090  and  _1091
REMARK  329  A    between atoms: _1091  and  _1092
REMARK  330  A    between atoms: _1092  and  _1093
REMARK  331  A    between atoms: _1107  and  _1108
REMARK  332  A    between atoms: _1108  and  _1109
REMARK  333  A    between atoms: _1108  and  _1111
REMARK  334  A    between atoms: _1111  and  _1112
REMARK  335  A    between atoms: _1112  and  _1113
REMARK  336  A    between atoms: _1124  and  _1125
REMARK  337  A    between atoms: _1125  and  _1126
REMARK  338  A    between atoms: _1125  and  _1128
REMARK  339  A    between atoms: _1128  and  _1129
REMARK  340  A    between atoms: _1136  and  _1137
REMARK  341  A    between atoms: _1137  and  _1138
REMARK  342  A    between atoms: _1137  and  _1140
REMARK  343  A    between atoms: _1140  and  _1141
REMARK  344  A    between atoms: _1141  and  _1142
REMARK  345  A    between atoms: _1142  and  _1143
REMARK  346  A    between atoms: _1160  and  _1161
REMARK  347  A    between atoms: _1161  and  _1162
REMARK  348  A    between atoms: _1161  and  _1164
REMARK  349  A    between atoms: _1164  and  _1165
REMARK  350  A    between atoms: _1164  and  _1166
REMARK  351  A    between atoms: _1174  and  _1175
REMARK  352  A    between atoms: _1175  and  _1176
REMARK  353  A    between atoms: _1175  and  _1178
REMARK  354  A    between atoms: _1178  and  _1179
REMARK  355  A    between atoms: _1179  and  _1180
REMARK  356  A    between atoms: _1179  and  _1181
REMARK  357  A    between atoms: _1193  and  _1194
REMARK  358  A    between atoms: _1194  and  _1195
REMARK  359  A    between atoms: _1194  and  _1197
REMARK  360  A    between atoms: _1197  and  _1198
REMARK  361  A    between atoms: _1197  and  _1199
REMARK  362  A    between atoms: _1207  and  _1208
REMARK  363  A    between atoms: _1208  and  _1209
REMARK  364  A    between atoms: _1208  and  _1211
REMARK  365  A    between atoms: _1211  and  _1212
REMARK  366  A    between atoms: _1211  and  _1213
REMARK  367  A    between atoms: _1212  and  _1214
REMARK  368  A    between atoms: _1226  and  _1227
REMARK  369  A    between atoms: _1227  and  _1228
REMARK  370  A    between atoms: _1227  and  _1230
REMARK  371  A    between atoms: _1230  and  _1231
REMARK  372  A    between atoms: _1230  and  _1232
REMARK  373  A    between atoms: _1242  and  _1243
REMARK  374  A    between atoms: _1243  and  _1244
REMARK  375  A    between atoms: _1243  and  _1246
REMARK  376  A    between atoms: _1246  and  _1247
REMARK  377  A    between atoms: _1254  and  _1255
REMARK  378  A    between atoms: _1255  and  _1256
REMARK  379  A    between atoms: _1255  and  _1258
REMARK  380  A    between atoms: _1258  and  _1259
REMARK  381  A    between atoms: _1258  and  _1260
REMARK  382  A    between atoms: _1268  and  _1269
REMARK  383  A    between atoms: _1269  and  _1270
REMARK  384  A    between atoms: _1275  and  _1276
REMARK  385  A    between atoms: _1276  and  _1277
REMARK  386  A    between atoms: _1276  and  _1279
REMARK  387  A    between atoms: _1279  and  _1280
REMARK  388  A    between atoms: _1279  and  _1281
REMARK  389  A    between atoms: _1280  and  _1282
REMARK  390  A    between atoms: _1294  and  _1295
REMARK  391  A    between atoms: _1295  and  _1296
REMARK  392  A    between atoms: _1301  and  _1302
REMARK  393  A    between atoms: _1302  and  _1303
REMARK  394  A    between atoms: _1302  and  _1305
REMARK  395  A    between atoms: _1305  and  _1306
REMARK  396  A    between atoms: _1306  and  _1307
REMARK  397  A    between atoms: _1307  and  _1308
REMARK  398  A    between atoms: _1318  and  _1319
REMARK  399  A    between atoms: _1319  and  _1320
REMARK  400  A    between atoms: _1319  and  _1322
REMARK  401  A    between atoms: _1322  and  _1323
REMARK  402  A    between atoms: _1322  and  _1324
REMARK  403  A    between atoms: _1332  and  _1333
REMARK  404  A    between atoms: _1333  and  _1334
REMARK  405  A    between atoms: _1333  and  _1336
REMARK  406  A    between atoms: _1336  and  _1337
REMARK  407  A    between atoms: _1337  and  _1338
REMARK  408  A    between atoms: _1338  and  _1339
REMARK  409  A    between atoms: _1339  and  _1340
REMARK  410  A    between atoms: _1354  and  _1355
REMARK  411  A    between atoms: _1355  and  _1356
REMARK  412  A    between atoms: _1355  and  _1358
REMARK  413  A    between atoms: _1364  and  _1365
REMARK  414  A    between atoms: _1365  and  _1366
REMARK  415  A    between atoms: _1365  and  _1368
REMARK  416  A    between atoms: _1368  and  _1369
REMARK  417  A    between atoms: _1376  and  _1377
REMARK  418  A    between atoms: _1377  and  _1378
REMARK  419  A    between atoms: _1377  and  _1380
REMARK  420  A    between atoms: _1380  and  _1381
REMARK  421  A    between atoms: _1381  and  _1382
REMARK  422  A    between atoms: _1381  and  _1383
REMARK  423  A    between atoms: _1395  and  _1396
REMARK  424  A    between atoms: _1396  and  _1399
REMARK  425  A    between atoms: _1399  and  _1400
REMARK  426  A    between atoms: _1399  and  _1401
REMARK  427  A    between atoms: _1400  and  _1402
REMARK  428  A    between atoms: _1422  and  _1425
REMARK  429  A    between atoms: _1424  and  _1428
REMARK  430  A    between atoms: _1425  and  _1427
REMARK  431  A    between atoms: _1443  and  _1444
REMARK  432  A    between atoms: _1443  and  _1446
REMARK  433  A    between atoms: _1446  and  _1447
REMARK  434  A    between atoms: _1457  and  _1458
REMARK  435  A    between atoms: _1458  and  _1459
REMARK  436  A    between atoms: _1458  and  _1461
REMARK  437  A    between atoms: _1461  and  _1462
REMARK  438  A    between atoms: _1462  and  _1463
REMARK  439  A    between atoms: _1462  and  _1464
REMARK  440  A    between atoms: _1476  and  _1477
REMARK  441  A    between atoms: _1477  and  _1478
REMARK  442  A    between atoms: _1483  and  _1484
REMARK  443  A    between atoms: _1484  and  _1485
REMARK  444  A    between atoms: _1484  and  _1487
REMARK  445  A    between atoms: _1487  and  _1488
REMARK  446  A    between atoms: _1487  and  _1489
REMARK  447  A    between atoms: _1497  and  _1498
REMARK  448  A    between atoms: _1498  and  _1499
REMARK  449  A    between atoms: _1498  and  _1501
REMARK  450  A    between atoms: _1501  and  _1502
REMARK  451  A    between atoms: _1501  and  _1503
REMARK  452  A    between atoms: _1502  and  _1504
REMARK  453  A    between atoms: _1516  and  _1517
REMARK  454  A    between atoms: _1517  and  _1518
REMARK  455  A    between atoms: _1517  and  _1520
REMARK  456  A    between atoms: _1526  and  _1527
REMARK  457  A    between atoms: _1527  and  _1528
REMARK  458  A    between atoms: _1527  and  _1530
REMARK  459  A    between atoms: _1530  and  _1531
REMARK  460  A    between atoms: _1531  and  _1532
REMARK  461  A    between atoms: _1532  and  _1533
REMARK  462  A    between atoms: _1533  and  _1534
REMARK  463  A    between atoms: _1548  and  _1549
REMARK  464  A    between atoms: _1549  and  _1550
REMARK  465  A    between atoms: _1549  and  _1552
REMARK  466  A    between atoms: _1552  and  _1553
REMARK  467  A    between atoms: _1559  and  _1560
REMARK  468  A    between atoms: _1560  and  _1561
REMARK  469  A    between atoms: _1566  and  _1567
REMARK  470  A    between atoms: _1567  and  _1568
REMARK  471  A    between atoms: _1567  and  _1570
REMARK  472  A    between atoms: _1570  and  _1571
REMARK  473  A    between atoms: _1570  and  _1572
REMARK  474  A    between atoms: _1580  and  _1581
REMARK  475  A    between atoms: _1581  and  _1582
REMARK  476  A    between atoms: _1581  and  _1584
REMARK  477  A    between atoms: _1584  and  _1585
REMARK  478  A    between atoms: _1585  and  _1586
REMARK  479  A    between atoms: _1586  and  _1587
REMARK  480  A    between atoms: _1587  and  _1588
REMARK  481  A    between atoms: _1602  and  _1603
REMARK  482  A    between atoms: _1603  and  _1604
REMARK  483  A    between atoms: _1603  and  _1606
REMARK  484  A    between atoms: _1612  and  _1613
REMARK  485  A    between atoms: _1613  and  _1614
REMARK  486  A    between atoms: _1613  and  _1616
REMARK  487  A    between atoms: _1616  and  _1617
REMARK  488  A    between atoms: _1632  and  _1633
REMARK  489  A    between atoms: _1633  and  _1634
REMARK  490  A    between atoms: _1633  and  _1636
REMARK  491  A    between atoms: _1636  and  _1637
REMARK  492  A    between atoms: _1637  and  _1638
REMARK  493  A    between atoms: _1638  and  _1639
REMARK  494  A    between atoms: _1649  and  _1650
REMARK  495  A    between atoms: _1650  and  _1651
REMARK  496  A    between atoms: _1650  and  _1653
REMARK  497  A    between atoms: _1653  and  _1654
REMARK  498  A    between atoms: _1654  and  _1655
REMARK  499  A    between atoms: _1664  and  _1665
REMARK  500  A    between atoms: _1665  and  _1666
REMARK  501  A    between atoms: _1665  and  _1668
REMARK  502  A    between atoms: _1674  and  _1675
REMARK  503  A    between atoms: _1675  and  _1676
REMARK  504  A    between atoms: _1675  and  _1678
REMARK  505  A    between atoms: _1678  and  _1679
REMARK  506  A    between atoms: _1679  and  _1680
REMARK  507  A    between atoms: _1679  and  _1681
REMARK  508  A    between atoms: _1693  and  _1694
REMARK  509  A    between atoms: _1694  and  _1695
REMARK  510  A    between atoms: _1694  and  _1697
REMARK  511  A    between atoms: _1697  and  _1698
REMARK  512  A    between atoms: _1698  and  _1699
REMARK  513  A    between atoms: _1710  and  _1711
REMARK  514  A    between atoms: _1711  and  _1712
REMARK  515  A    between atoms: _1711  and  _1714
REMARK  516  A    between atoms: _1720  and  _1721
REMARK  517  A    between atoms: _1721  and  _1722
REMARK  518  A    between atoms: _1727  and  _1728
REMARK  519  A    between atoms: _1728  and  _1729
REMARK  520  A    between atoms: _1728  and  _1731
REMARK  521  A    between atoms: _1737  and  _1738
REMARK  522  A    between atoms: _1738  and  _1739
REMARK  523  A    between atoms: _1738  and  _1741
REMARK  524  A    between atoms: _1741  and  _1742
REMARK  525  A    between atoms: _1749  and  _1750
REMARK  526  A    between atoms: _1750  and  _1751
REMARK  527  A    between atoms: _1750  and  _1753
REMARK  528  A    between atoms: _1753  and  _1754
REMARK  529  A    between atoms: _1753  and  _1755
REMARK  530  A    between atoms: _1754  and  _1756
REMARK  531  A    between atoms: _1768  and  _1769
REMARK  532  A    between atoms: _1769  and  _1772
REMARK  533  A    between atoms: _1772  and  _1773
REMARK  534  A    between atoms: _1791  and  _1793
REMARK  535  A    between atoms: _1792  and  _1794
REMARK  536  A    between atoms: _1814  and  _1815
REMARK  537  A    between atoms: _1814  and  _1817
REMARK  538  A    between atoms: _1817  and  _1818
REMARK  539  A    between atoms: _1817  and  _1819
REMARK  540  A    between atoms: _1818  and  _1820
REMARK  541  A    between atoms: _1833  and  _1834
REMARK  542  A    between atoms: _1834  and  _1835
REMARK  543  A    between atoms: _1840  and  _1841
REMARK  544  A    between atoms: _1841  and  _1842
REMARK  545  A    between atoms: _1841  and  _1844
REMARK  546  A    between atoms: _1844  and  _1845
REMARK  547  A    between atoms: _1845  and  _1846
REMARK  548  A    between atoms: _1857  and  _1858
REMARK  549  A    between atoms: _1858  and  _1859
REMARK  550  A    between atoms: _1858  and  _1861
REMARK  551  A    between atoms: _1861  and  _1862
REMARK  552  A    between atoms: _1877  and  _1878
REMARK  553  A    between atoms: _1878  and  _1879
REMARK  554  A    between atoms: _1884  and  _1885
REMARK  555  A    between atoms: _1885  and  _1886
REMARK  556  A    between atoms: _1885  and  _1888
REMARK  557  A    between atoms: _1888  and  _1889
REMARK  558  A    between atoms: _1888  and  _1890
REMARK  559  A    between atoms: _1900  and  _1901
REMARK  560  A    between atoms: _1901  and  _1902
REMARK  561  A    between atoms: _1907  and  _1908
REMARK  562  A    between atoms: _1908  and  _1909
REMARK  563  A    between atoms: _1908  and  _1911
REMARK  564  A    between atoms: _1911  and  _1912
REMARK  565  A    between atoms: _1927  and  _1928
REMARK  566  A    between atoms: _1928  and  _1929
REMARK  567  A    between atoms: _1928  and  _1931
REMARK  568  A    between atoms: _1931  and  _1932
REMARK  569  A    between atoms: _1937  and  _1938
REMARK  570  A    between atoms: _1948  and  _1949
REMARK  571  A    between atoms: _1949  and  _1950
REMARK  572  A    between atoms: _1949  and  _1952
REMARK  573  A    between atoms: _1952  and  _1953
REMARK  574  A    between atoms: _1959  and  _1960
REMARK  575  A    between atoms: _1960  and  _1961
REMARK  576  A    between atoms: _1960  and  _1963
REMARK  577  A    between atoms: _1969  and  _1970
REMARK  578  A    between atoms: _1970  and  _1971
REMARK  579  A    between atoms: _1970  and  _1973
REMARK  580  A    between atoms: _1973  and  _1974
REMARK  581  A    between atoms: _1979  and  _1980
REMARK  582  A    between atoms: _1990  and  _1991
REMARK  583  A    between atoms: _1991  and  _1992
REMARK  584  A    between atoms: _1991  and  _1994
REMARK  585  A    between atoms: _1994  and  _1995
REMARK  586  A    between atoms: _1995  and  _1996
REMARK  587  A    between atoms: _1995  and  _1997
REMARK  588  A    between atoms: _2009  and  _2010
REMARK  589  A    between atoms: _2010  and  _2011
REMARK  590  A    between atoms: _2010  and  _2013
REMARK  591  A    between atoms: _2013  and  _2014
REMARK  592  A    between atoms: _2013  and  _2015
REMARK  593  A    between atoms: _2025  and  _2026
REMARK  594  A    between atoms: _2026  and  _2027
REMARK  595  A    between atoms: _2026  and  _2029
REMARK  596  A    between atoms: _2035  and  _2036
REMARK  597  A    between atoms: _2036  and  _2037
REMARK  598  A    between atoms: _2036  and  _2039
REMARK  599  A    between atoms: _2039  and  _2040
REMARK  600  A    between atoms: _2040  and  _2041
REMARK  601  A    between atoms: _2050  and  _2051
REMARK  602  A    between atoms: _2051  and  _2052
REMARK  603  A    between atoms: _2051  and  _2054
REMARK  604  A    between atoms: _2054  and  _2055
REMARK  605  A    between atoms: _2055  and  _2056
REMARK  606  A    between atoms: _2056  and  _2057
REMARK  607  A    between atoms: _2057  and  _2058
REMARK  608  A    between atoms: _2072  and  _2073
REMARK  609  A    between atoms: _2073  and  _2074
REMARK  610  A    between atoms: _2073  and  _2076
REMARK  611  A    between atoms: _2076  and  _2077
REMARK  612  A    between atoms: _2076  and  _2078
REMARK  613  A    between atoms: _2088  and  _2089
REMARK  614  A    between atoms: _2089  and  _2090
REMARK  615  A    between atoms: _2089  and  _2092
REMARK  616  A    between atoms: _2092  and  _2093
REMARK  617  A    between atoms: _2092  and  _2094
REMARK  618  A    between atoms: _2102  and  _2103
REMARK  619  A    between atoms: _2103  and  _2104
REMARK  620  A    between atoms: _2103  and  _2106
REMARK  621  A    between atoms: _2106  and  _2107
REMARK  622  A    between atoms: _2106  and  _2108
REMARK  623  A    between atoms: _2118  and  _2119
REMARK  624  A    between atoms: _2119  and  _2120
REMARK  625  A    between atoms: _2119  and  _2122
REMARK  626  A    between atoms: _2122  and  _2123
REMARK  627  A    between atoms: _2122  and  _2124
REMARK  628  A    between atoms: _2123  and  _2125
REMARK  629  A    between atoms: _2137  and  _2138
REMARK  630  A    between atoms: _2138  and  _2139
REMARK  631  A    between atoms: _2138  and  _2141
REMARK  632  A    between atoms: _2141  and  _2142
REMARK  633  A    between atoms: _2141  and  _2143
REMARK  634  A    between atoms: _2151  and  _2152
REMARK  635  A    between atoms: _2152  and  _2153
REMARK  636  A    between atoms: _2152  and  _2155
REMARK  637  A    between atoms: _2155  and  _2156
REMARK  638  A    between atoms: _2156  and  _2157
REMARK  639  A    between atoms: _2157  and  _2158
REMARK  640  A    between atoms: _2158  and  _2159
REMARK  641  A    between atoms: _2173  and  _2174
REMARK  642  A    between atoms: _2174  and  _2175
REMARK  643  A    between atoms: _2174  and  _2177
REMARK  644  A    between atoms: _2177  and  _2178
REMARK  645  A    between atoms: _2190  and  _2191
REMARK  646  A    between atoms: _2191  and  _2192
REMARK  647  A    between atoms: _2191  and  _2194
REMARK  648  A    between atoms: _2194  and  _2195
REMARK  649  A    between atoms: _2204  and  _2205
REMARK  650  A    between atoms: _2205  and  _2206
REMARK  651  A    between atoms: _2205  and  _2208
REMARK  652  A    between atoms: _2208  and  _2209
REMARK  653  A    between atoms: _2216  and  _2217
REMARK  654  A    between atoms: _2217  and  _2218
REMARK  655  A    between atoms: _2217  and  _2220
REMARK  656  A    between atoms: _2220  and  _2221
REMARK  657  A    between atoms: _2228  and  _2229
REMARK  658  A    between atoms: _2229  and  _2230
REMARK  659  A    between atoms: _2229  and  _2232
REMARK  660  A    between atoms: _2232  and  _2233
REMARK  661  A    between atoms: _2233  and  _2234
REMARK  662  A    between atoms: _2243  and  _2244
REMARK  663  A    between atoms: _2244  and  _2245
REMARK  664  A    between atoms: _2244  and  _2247
REMARK  665  A    between atoms: _2247  and  _2248
REMARK  666  A    between atoms: _2248  and  _2249
REMARK  667  A    between atoms: _2260  and  _2261
REMARK  668  A    between atoms: _2261  and  _2262
REMARK  669  A    between atoms: _2261  and  _2264
REMARK  670  A    between atoms: _2264  and  _2265
REMARK  671  A    between atoms: _2270  and  _2271
REMARK  672  A    between atoms: _2281  and  _2282
REMARK  673  A    between atoms: _2282  and  _2283
REMARK  674  A    between atoms: _2282  and  _2285
REMARK  675  A    between atoms: _2291  and  _2292
REMARK  676  A    between atoms: _2292  and  _2293
REMARK  677  A    between atoms: _2292  and  _2295
REMARK  678  A    between atoms: _2295  and  _2296
REMARK  679  A    between atoms: _2315  and  _2316
REMARK  680  A    between atoms: _2316  and  _2317
REMARK  681  A    between atoms: _2316  and  _2319
REMARK  682  A    between atoms: _2319  and  _2320
REMARK  683  A    between atoms: _2320  and  _2321
REMARK  684  A    between atoms: _2330  and  _2331
REMARK  685  A    between atoms: _2331  and  _2332
REMARK  686  A    between atoms: _2331  and  _2334
REMARK  687  A    between atoms: _2334  and  _2335
REMARK  688  A    between atoms: _2341  and  _2342
REMARK  689  A    between atoms: _2342  and  _2343
REMARK  690  A    between atoms: _2342  and  _2345
REMARK  691  A    between atoms: _2345  and  _2346
REMARK  692  A    between atoms: _2352  and  _2353
REMARK  693  A    between atoms: _2353  and  _2354
REMARK  694  A    between atoms: _2353  and  _2356
REMARK  695  A    between atoms: _2362  and  _2363
REMARK  696  A    between atoms: _2363  and  _2364
REMARK  697  A    between atoms: _2369  and  _2370
REMARK  698  A    between atoms: _2370  and  _2371
REMARK  699  A    between atoms: _2376  and  _2377
REMARK  700  A    between atoms: _2377  and  _2378
REMARK  701  A    between atoms: _2377  and  _2380
REMARK  702  A    between atoms: _2380  and  _2381
REMARK  703  A    between atoms: _2387  and  _2388
REMARK  704  A    between atoms: _2388  and  _2389
REMARK  705  A    between atoms: _2388  and  _2391
REMARK  706  A    between atoms: _2391  and  _2392
REMARK  707  A    between atoms: _2407  and  _2408
REMARK  708  A    between atoms: _2408  and  _2409
REMARK  709  A    between atoms: _2408  and  _2411
REMARK  710  A    between atoms: _2411  and  _2412
REMARK  711  A    between atoms: _2411  and  _2413
REMARK  712  A    between atoms: _2421  and  _2422
REMARK  713  A    between atoms: _2422  and  _2423
REMARK  714  A    between atoms: _2422  and  _2425
REMARK  715  A    between atoms: _2425  and  _2426
REMARK  716  A    between atoms: _2425  and  _2427
REMARK  717  A    between atoms: _2437  and  _2438
REMARK  718  A    between atoms: _2438  and  _2439
REMARK  719  A    between atoms: _2438  and  _2441
REMARK  720  A    between atoms: _2441  and  _2442
REMARK  721  A    between atoms: _2442  and  _2443
REMARK  722  A    between atoms: _2443  and  _2444
REMARK  723  A    between atoms: _2461  and  _2462
REMARK  724  A    between atoms: _2462  and  _2463
REMARK  725  A    between atoms: _2462  and  _2465
REMARK  726  A    between atoms: _2465  and  _2466
REMARK  727  A    between atoms: _2465  and  _2467
REMARK  728  A    between atoms: _2475  and  _2476
REMARK  729  A    between atoms: _2476  and  _2477
REMARK  730  A    between atoms: _2476  and  _2479
REMARK  731  A    between atoms: _2479  and  _2480
REMARK  732  A    between atoms: _2487  and  _2488
REMARK  733  A    between atoms: _2488  and  _2489
REMARK  734  A    between atoms: _2488  and  _2491
REMARK  735  A    between atoms: _2491  and  _2492
REMARK  736  A    between atoms: _2491  and  _2493
REMARK  737  A    between atoms: _2501  and  _2502
REMARK  738  A    between atoms: _2502  and  _2503
REMARK  739  A    between atoms: _2508  and  _2509
REMARK  740  A    between atoms: _2509  and  _2510
REMARK  741  A    between atoms: _2509  and  _2512
REMARK  742  A    between atoms: _2512  and  _2513
REMARK  743  A    between atoms: _2513  and  _2514
REMARK  744  A    between atoms: _2524  and  _2525
REMARK  745  A    between atoms: _2537  and  _2538
REMARK  746  A    between atoms: _2538  and  _2539
REMARK  747  A    between atoms: _2538  and  _2541
REMARK  748  A    between atoms: _2541  and  _2542
REMARK  749  A    between atoms: _2542  and  _2543
REMARK  750  A    between atoms: _2543  and  _2544
REMARK  751  A    between atoms: _2554  and  _2555
REMARK  752  A    between atoms: _2555  and  _2556
REMARK  753  A    between atoms: _2561  and  _2562
REMARK  754  A    between atoms: _2562  and  _2563
REMARK  755  A    between atoms: _2562  and  _2565
REMARK  756  A    between atoms: _2565  and  _2566
REMARK  757  A    between atoms: _2566  and  _2567
REMARK  758  A    between atoms: _2567  and  _2568
REMARK  759  A    between atoms: _2585  and  _2586
REMARK  760  A    between atoms: _2586  and  _2587
REMARK  761  A    between atoms: _2592  and  _2593
REMARK  762  A    between atoms: _2593  and  _2594
REMARK  763  A    between atoms: _2593  and  _2596
REMARK  764  A    between atoms: _2596  and  _2597
REMARK  765  A    between atoms: _2596  and  _2598
REMARK  766  A    between atoms: _2606  and  _2607
REMARK  767  A    between atoms: _2607  and  _2608
REMARK  768  A    between atoms: _2607  and  _2610
REMARK  769  A    between atoms: _2610  and  _2611
REMARK  770  A    between atoms: _2611  and  _2612
REMARK  771  A    between atoms: _2612  and  _2613
REMARK  772  A    between atoms: _2613  and  _2614
REMARK  773  A    between atoms: _2628  and  _2629
REMARK  774  A    between atoms: _2629  and  _2630
REMARK  775  A    between atoms: _2629  and  _2632
REMARK  776  A    between atoms: _2632  and  _2633
REMARK  777  A    between atoms: _2632  and  _2634
REMARK  778  A    between atoms: _2644  and  _2645
REMARK  779  A    between atoms: _2645  and  _2646
REMARK  780  A    between atoms: _2645  and  _2648
REMARK  781  A    between atoms: _2648  and  _2649
REMARK  782  A    between atoms: _2648  and  _2650
REMARK  783  A    between atoms: _2649  and  _2651
REMARK  784  A    between atoms: _2663  and  _2664
REMARK  785  A    between atoms: _2664  and  _2665
REMARK  786  A    between atoms: _2664  and  _2667
REMARK  787  A    between atoms: _2667  and  _2668
REMARK  788  A    between atoms: _2668  and  _2669
REMARK  789  A    between atoms: _2668  and  _2670
REMARK  790  A    between atoms: _2682  and  _2683
REMARK  791  A    between atoms: _2683  and  _2684
REMARK  792  A    between atoms: _2683  and  _2686
REMARK  793  A    between atoms: _2686  and  _2687
REMARK  794  A    between atoms: _2699  and  _2700
REMARK  795  A    between atoms: _2700  and  _2701
REMARK  796  A    between atoms: _2700  and  _2703
REMARK  797  A    between atoms: _2703  and  _2704
REMARK  798  A    between atoms: _2704  and  _2705
REMARK  799  A    between atoms: _2704  and  _2706
REMARK  800  A    between atoms: _2718  and  _2719
REMARK  801  A    between atoms: _2719  and  _2720
REMARK  802  A    between atoms: _2719  and  _2722
REMARK  803  A    between atoms: _2722  and  _2723
REMARK  804  A    between atoms: _2723  and  _2724
REMARK  805  A    between atoms: _2724  and  _2725
REMARK  806  A    between atoms: _2725  and  _2726
REMARK  807  A    between atoms: _2740  and  _2741
REMARK  808  A    between atoms: _2741  and  _2742
REMARK  809  A    between atoms: _2741  and  _2744
REMARK  810  A    between atoms: _2744  and  _2745
REMARK  811  A    between atoms: _2745  and  _2746
REMARK  812  A    between atoms: _2755  and  _2756
REMARK  813  A    between atoms: _2756  and  _2757
REMARK  814  A    between atoms: _2756  and  _2759
REMARK  815  A    between atoms: _2759  and  _2760
REMARK  816  A    between atoms: _2767  and  _2768
REMARK  817  A    between atoms: _2768  and  _2769
REMARK  818  A    between atoms: _2768  and  _2771
REMARK  819  A    between atoms: _2771  and  _2772
REMARK  820  A    between atoms: _2772  and  _2773
REMARK  821  A    between atoms: _2784  and  _2785
REMARK  822  A    between atoms: _2785  and  _2786
REMARK  823  A    between atoms: _2785  and  _2788
REMARK  824  A    between atoms: _2788  and  _2789
REMARK  825  A    between atoms: _2788  and  _2790
REMARK  826  A    between atoms: _2798  and  _2799
REMARK  827  A    between atoms: _2799  and  _2800
REMARK  828  A    between atoms: _2799  and  _2802
REMARK  829  A    between atoms: _2802  and  _2803
REMARK  830  A    between atoms: _2803  and  _2804
REMARK  831  A    between atoms: _2813  and  _2814
REMARK  832  A    between atoms: _2814  and  _2815
REMARK  833  A    between atoms: _2814  and  _2817
REMARK  834  A    between atoms: _2817  and  _2818
REMARK  835  A    between atoms: _2823  and  _2824
REMARK  836  A    between atoms: _2834  and  _2835
REMARK  837  A    between atoms: _2835  and  _2838
REMARK  838  A    between atoms: _2838  and  _2839
REMARK  839  A    between atoms: _2839  and  _2840
REMARK  840  A    between atoms: _2839  and  _2841
REMARK  841  A    between atoms: _2884  and  _2885
REMARK  842  A    between atoms: _2884  and  _2887
REMARK  843  A    between atoms: _2887  and  _2888
REMARK  844  A    between atoms: _2888  and  _2889
REMARK  845  A    between atoms: _2899  and  _2900
REMARK  846  A    between atoms: _2900  and  _2901
REMARK  847  A    between atoms: _2900  and  _2903
REMARK  848  A    between atoms: _2903  and  _2904
REMARK  849  A    between atoms: _2904  and  _2905
REMARK  850  A    between atoms: _2905  and  _2906
REMARK  851  A    between atoms: _2923  and  _2924
REMARK  852  A    between atoms: _2924  and  _2925
REMARK  853  A    between atoms: _2924  and  _2927
REMARK  854  A    between atoms: _2927  and  _2928
REMARK  855  A    between atoms: _2928  and  _2929
REMARK  856  A    between atoms: _2929  and  _2930
REMARK  857  A    between atoms: _2947  and  _2948
REMARK  858  A    between atoms: _2948  and  _2949
REMARK  859  A    between atoms: _2948  and  _2951
REMARK  860  A    between atoms: _2951  and  _2952
REMARK  861  A    between atoms: _2951  and  _2953
REMARK  862  A    between atoms: _2952  and  _2954
REMARK  863  A    between atoms: _2966  and  _2967
REMARK  864  A    between atoms: _2967  and  _2968
REMARK  865  A    between atoms: _2967  and  _2970
REMARK  866  A    between atoms: _2970  and  _2971
REMARK  867  A    between atoms: _2971  and  _2972
REMARK  868  A    between atoms: _2972  and  _2973
REMARK  869  A    between atoms: _2973  and  _2974
REMARK  870  A    between atoms: _2988  and  _2989
REMARK  871  A    between atoms: _2989  and  _2990
REMARK  872  A    between atoms: _2989  and  _2992
REMARK  873  A    between atoms: _2992  and  _2993
REMARK  874  A    between atoms: _2993  and  _2994
REMARK  875  A    between atoms: _3003  and  _3004
REMARK  876  A    between atoms: _3004  and  _3005
REMARK  877  A    between atoms: _3004  and  _3007
REMARK  878  A    between atoms: _3007  and  _3008
REMARK  879  A    between atoms: _3007  and  _3009
REMARK  880  A    between atoms: _3008  and  _3010
REMARK  881  A    between atoms: _3022  and  _3023
REMARK  882  A    between atoms: _3023  and  _3024
REMARK  883  A    between atoms: _3023  and  _3026
REMARK  884  A    between atoms: _3026  and  _3027
REMARK  885  A    between atoms: _3026  and  _3028
REMARK  886  A    between atoms: _3038  and  _3039
REMARK  887  A    between atoms: _3039  and  _3040
REMARK  888  A    between atoms: _3039  and  _3042
REMARK  889  A    between atoms: _3042  and  _3043
REMARK  890  A    between atoms: _3043  and  _3044
REMARK  891  A    between atoms: _3044  and  _3045
REMARK  892  A    between atoms: _3045  and  _3046
REMARK  893  A    between atoms: _3060  and  _3061
REMARK  894  A    between atoms: _3061  and  _3062
REMARK  895  A    between atoms: _3061  and  _3064
REMARK  896  A    between atoms: _3064  and  _3065
REMARK  897  A    between atoms: _3065  and  _3066
REMARK  898  A    between atoms: _3066  and  _3067
REMARK  899  A    between atoms: _3067  and  _3068
REMARK  900  A    between atoms: _3082  and  _3083
REMARK  901  A    between atoms: _3083  and  _3084
REMARK  902  A    between atoms: _3083  and  _3086
REMARK  903  A    between atoms: _3086  and  _3087
REMARK  904  A    between atoms: _3099  and  _3100
REMARK  905  A    between atoms: _3100  and  _3101
REMARK  906  A    between atoms: _3100  and  _3103
REMARK  907  A    between atoms: _3103  and  _3104
REMARK  908  A    between atoms: _3110  and  _3111
REMARK  909  A    between atoms: _3111  and  _3112
REMARK  910  A    between atoms: _3111  and  _3114
REMARK  911  A    between atoms: _3114  and  _3115
REMARK  912  A    between atoms: _3115  and  _3116
REMARK  913  A    between atoms: _3127  and  _3128
REMARK  914  A    between atoms: _3128  and  _3129
REMARK  915  A    between atoms: _3128  and  _3131
REMARK  916  A    between atoms: _3131  and  _3132
REMARK  917  A    between atoms: _3147  and  _3148
REMARK  918  A    between atoms: _3148  and  _3149
REMARK  919  A    between atoms: _3148  and  _3151
REMARK  920  A    between atoms: _3151  and  _3152
REMARK  921  A    between atoms: _3151  and  _3153
REMARK  922  A    between atoms: _3152  and  _3154
REMARK  923  A    between atoms: _3166  and  _3167
REMARK  924  A    between atoms: _3167  and  _3168
REMARK  925  A    between atoms: _3173  and  _3174
REMARK  926  A    between atoms: _3174  and  _3175
REMARK  927  A    between atoms: _3174  and  _3177
REMARK  928  A    between atoms: _3177  and  _3178
REMARK  929  A    between atoms: _3183  and  _3184
REMARK  930  A    between atoms: _3195  and  _3196
REMARK  931  A    between atoms: _3208  and  _3209
REMARK  932  A    between atoms: _3209  and  _3210
REMARK  933  A    between atoms: _3209  and  _3212
REMARK  934  A    between atoms: _3212  and  _3213
REMARK  935  A    between atoms: _3212  and  _3214
REMARK  936  A    between atoms: _3213  and  _3215
REMARK  937  A    between atoms: _3227  and  _3228
REMARK  938  A    between atoms: _3228  and  _3229
REMARK  939  A    between atoms: _3228  and  _3231
REMARK  940  A    between atoms: _3231  and  _3232
REMARK  941  A    between atoms: _3231  and  _3233
REMARK  942  A    between atoms: _3241  and  _3242
REMARK  943  A    between atoms: _3242  and  _3243
REMARK  944  A    between atoms: _3242  and  _3245
REMARK  945  A    between atoms: _3245  and  _3246
REMARK  946  A    between atoms: _3246  and  _3247
REMARK  947  A    between atoms: _3246  and  _3248
REMARK  948  A    between atoms: _3260  and  _3261
REMARK  949  A    between atoms: _3261  and  _3262
REMARK  950  A    between atoms: _3261  and  _3264
REMARK  951  A    between atoms: _3264  and  _3265
REMARK  952  A    between atoms: _3280  and  _3281
REMARK  953  A    between atoms: _3281  and  _3282
REMARK  954  A    between atoms: _3281  and  _3284
REMARK  955  A    between atoms: _3284  and  _3285
REMARK  956  A    between atoms: _3284  and  _3286
REMARK  957  A    between atoms: _3296  and  _3297
REMARK  958  A    between atoms: _3297  and  _3298
REMARK  959  A    between atoms: _3297  and  _3300
REMARK  960  A    between atoms: _3300  and  _3301
REMARK  961  A    between atoms: _3301  and  _3302
REMARK                            x       y       z     vdW  Elec       q    Type
REMARK                         _______ _______ _______ _____ _____    ______ ____
ROOT
ATOM      1  C   UNL     1      -8.286  19.491  39.092  0.00  0.00    +0.279 C 
ATOM      2  O   UNL     1      -9.266  19.010  38.512  0.00  0.00    -0.279 OA
ENDROOT
TORSDOF 0
REMARK  Name = /Users/mlugowska/PhD/ML_residence_time_prediction/protein_files/5J20_protein.pdb
REMARK  961 active torsions:
REMARK  status: ('A' for Active; 'I' for Inactive)
REMARK    1  A    between atoms: _2  and  _3
REMARK    2  A    between atoms: _2  and  _5
REMARK    3  A    between atoms: _10  and  _11
REMARK    4  A    between atoms: _11  and  _12
REMARK    5  A    between atoms: _11  and  _14
REMARK    6  A    between atoms: _14  and  _15
REMARK    7  A    between atoms: _14  and  _16
REMARK    8  A    between atoms: _26  and  _27
REMARK    9  A    between atoms: _27  and  _28
REMARK   10  A    between atoms: _27  and  _30
REMARK   11  A    between atoms: _30  and  _31
REMARK   12  A    between atoms: _31  and  _32
REMARK   13  A    between atoms: _41  and  _42
REMARK   14  A    between atoms: _42  and  _43
REMARK   15  A    between atoms: _42  and  _45
REMARK   16  A    between atoms: _45  and  _46
REMARK   17  A    between atoms: _45  and  _47
REMARK   18  A    between atoms: _55  and  _56
REMARK   19  A    between atoms: _56  and  _57
REMARK   20  A    between atoms: _56  and  _59
REMARK   21  A    between atoms: _59  and  _60
REMARK   22  A    between atoms: _75  and  _76
REMARK   23  A    between atoms: _76  and  _77
REMARK   24  A    between atoms: _76  and  _79
REMARK   25  A    between atoms: _85  and  _86
REMARK   26  A    between atoms: _86  and  _87
REMARK   27  A    between atoms: _86  and  _89
REMARK   28  A    between atoms: _89  and  _90
REMARK   29  A    between atoms: _105  and  _106
REMARK   30  A    between atoms: _106  and  _107
REMARK   31  A    between atoms: _106  and  _109
REMARK   32  A    between atoms: _109  and  _110
REMARK   33  A    between atoms: _110  and  _111
REMARK   34  A    between atoms: _122  and  _123
REMARK   35  A    between atoms: _123  and  _124
REMARK   36  A    between atoms: _123  and  _126
REMARK   37  A    between atoms: _132  and  _133
REMARK   38  A    between atoms: _133  and  _134
REMARK   39  A    between atoms: _133  and  _136
REMARK   40  A    between atoms: _136  and  _137
REMARK   41  A    between atoms: _137  and  _138
REMARK   42  A    between atoms: _147  and  _148
REMARK   43  A    between atoms: _148  and  _149
REMARK   44  A    between atoms: _148  and  _151
REMARK   45  A    between atoms: _151  and  _152
REMARK   46  A    between atoms: _151  and  _153
REMARK   47  A    between atoms: _152  and  _154
REMARK   48  A    between atoms: _166  and  _167
REMARK   49  A    between atoms: _167  and  _168
REMARK   50  A    between atoms: _167  and  _170
REMARK   51  A    between atoms: _176  and  _177
REMARK   52  A    between atoms: _177  and  _178
REMARK   53  A    between atoms: _177  and  _180
REMARK   54  A    between atoms: _180  and  _181
REMARK   55  A    between atoms: _181  and  _182
REMARK   56  A    between atoms: _193  and  _194
REMARK   57  A    between atoms: _194  and  _195
REMARK   58  A    between atoms: _194  and  _197
REMARK   59  A    between atoms: _197  and  _198
REMARK   60  A    between atoms: _198  and  _199
REMARK   61  A    between atoms: _198  and  _200
REMARK   62  A    between atoms: _212  and  _213
REMARK   63  A    between atoms: _213  and  _214
REMARK   64  A    between atoms: _213  and  _216
REMARK   65  A    between atoms: _216  and  _217
REMARK   66  A    between atoms: _217  and  _218
REMARK   67  A    between atoms: _218  and  _219
REMARK   68  A    between atoms: _229  and  _230
REMARK   69  A    between atoms: _230  and  _231
REMARK   70  A    between atoms: _230  and  _233
REMARK   71  A    between atoms: _233  and  _234
REMARK   72  A    between atoms: _240  and  _241
REMARK   73  A    between atoms: _241  and  _242
REMARK   74  A    between atoms: _241  and  _244
REMARK   75  A    between atoms: _244  and  _245
REMARK   76  A    between atoms: _245  and  _246
REMARK   77  A    between atoms: _245  and  _247
REMARK   78  A    between atoms: _259  and  _260
REMARK   79  A    between atoms: _260  and  _261
REMARK   80  A    between atoms: _260  and  _263
REMARK   81  A    between atoms: _263  and  _264
REMARK   82  A    between atoms: _263  and  _265
REMARK   83  A    between atoms: _264  and  _266
REMARK   84  A    between atoms: _278  and  _279
REMARK   85  A    between atoms: _279  and  _280
REMARK   86  A    between atoms: _279  and  _282
REMARK   87  A    between atoms: _282  and  _283
REMARK   88  A    between atoms: _282  and  _284
REMARK   89  A    between atoms: _283  and  _285
REMARK   90  A    between atoms: _297  and  _298
REMARK   91  A    between atoms: _298  and  _299
REMARK   92  A    between atoms: _298  and  _301
REMARK   93  A    between atoms: _301  and  _302
REMARK   94  A    between atoms: _311  and  _312
REMARK   95  A    between atoms: _312  and  _313
REMARK   96  A    between atoms: _312  and  _315
REMARK   97  A    between atoms: _315  and  _316
REMARK   98  A    between atoms: _315  and  _317
REMARK   99  A    between atoms: _325  and  _326
REMARK  100  A    between atoms: _326  and  _327
REMARK  101  A    between atoms: _326  and  _329
REMARK  102  A    between atoms: _329  and  _330
REMARK  103  A    between atoms: _345  and  _346
REMARK  104  A    between atoms: _346  and  _347
REMARK  105  A    between atoms: _346  and  _349
REMARK  106  A    between atoms: _349  and  _350
REMARK  107  A    between atoms: _355  and  _356
REMARK  108  A    between atoms: _366  and  _367
REMARK  109  A    between atoms: _367  and  _368
REMARK  110  A    between atoms: _367  and  _370
REMARK  111  A    between atoms: _370  and  _371
REMARK  112  A    between atoms: _377  and  _378
REMARK  113  A    between atoms: _378  and  _379
REMARK  114  A    between atoms: _378  and  _381
REMARK  115  A    between atoms: _381  and  _382
REMARK  116  A    between atoms: _391  and  _392
REMARK  117  A    between atoms: _392  and  _393
REMARK  118  A    between atoms: _392  and  _395
REMARK  119  A    between atoms: _395  and  _396
REMARK  120  A    between atoms: _396  and  _397
REMARK  121  A    between atoms: _397  and  _398
REMARK  122  A    between atoms: _398  and  _399
REMARK  123  A    between atoms: _413  and  _414
REMARK  124  A    between atoms: _414  and  _415
REMARK  125  A    between atoms: _414  and  _417
REMARK  126  A    between atoms: _417  and  _418
REMARK  127  A    between atoms: _418  and  _419
REMARK  128  A    between atoms: _428  and  _429
REMARK  129  A    between atoms: _429  and  _430
REMARK  130  A    between atoms: _429  and  _432
REMARK  131  A    between atoms: _432  and  _433
REMARK  132  A    between atoms: _432  and  _434
REMARK  133  A    between atoms: _433  and  _435
REMARK  134  A    between atoms: _447  and  _448
REMARK  135  A    between atoms: _448  and  _449
REMARK  136  A    between atoms: _448  and  _451
REMARK  137  A    between atoms: _451  and  _452
REMARK  138  A    between atoms: _467  and  _468
REMARK  139  A    between atoms: _468  and  _469
REMARK  140  A    between atoms: _468  and  _471
REMARK  141  A    between atoms: _471  and  _472
REMARK  142  A    between atoms: _472  and  _473
REMARK  143  A    between atoms: _472  and  _474
REMARK  144  A    between atoms: _486  and  _487
REMARK  145  A    between atoms: _487  and  _488
REMARK  146  A    between atoms: _487  and  _490
REMARK  147  A    between atoms: _490  and  _491
REMARK  148  A    between atoms: _491  and  _492
REMARK  149  A    between atoms: _492  and  _493
REMARK  150  A    between atoms: _510  and  _511
REMARK  151  A    between atoms: _511  and  _512
REMARK  152  A    between atoms: _511  and  _514
REMARK  153  A    between atoms: _514  and  _515
REMARK  154  A    between atoms: _515  and  _516
REMARK  155  A    between atoms: _525  and  _526
REMARK  156  A    between atoms: _526  and  _527
REMARK  157  A    between atoms: _526  and  _529
REMARK  158  A    between atoms: _529  and  _530
REMARK  159  A    between atoms: _530  and  _531
REMARK  160  A    between atoms: _530  and  _532
REMARK  161  A    between atoms: _544  and  _545
REMARK  162  A    between atoms: _545  and  _546
REMARK  163  A    between atoms: _545  and  _548
REMARK  164  A    between atoms: _548  and  _549
REMARK  165  A    between atoms: _548  and  _550
REMARK  166  A    between atoms: _549  and  _551
REMARK  167  A    between atoms: _563  and  _564
REMARK  168  A    between atoms: _564  and  _565
REMARK  169  A    between atoms: _564  and  _567
REMARK  170  A    between atoms: _567  and  _568
REMARK  171  A    between atoms: _574  and  _575
REMARK  172  A    between atoms: _575  and  _576
REMARK  173  A    between atoms: _575  and  _578
REMARK  174  A    between atoms: _578  and  _579
REMARK  175  A    between atoms: _588  and  _589
REMARK  176  A    between atoms: _589  and  _590
REMARK  177  A    between atoms: _589  and  _592
REMARK  178  A    between atoms: _592  and  _593
REMARK  179  A    between atoms: _599  and  _600
REMARK  180  A    between atoms: _600  and  _601
REMARK  181  A    between atoms: _600  and  _603
REMARK  182  A    between atoms: _603  and  _604
REMARK  183  A    between atoms: _610  and  _611
REMARK  184  A    between atoms: _611  and  _612
REMARK  185  A    between atoms: _611  and  _614
REMARK  186  A    between atoms: _614  and  _615
REMARK  187  A    between atoms: _622  and  _623
REMARK  188  A    between atoms: _623  and  _624
REMARK  189  A    between atoms: _623  and  _626
REMARK  190  A    between atoms: _632  and  _633
REMARK  191  A    between atoms: _633  and  _634
REMARK  192  A    between atoms: _633  and  _636
REMARK  193  A    between atoms: _636  and  _637
REMARK  194  A    between atoms: _637  and  _638
REMARK  195  A    between atoms: _637  and  _639
REMARK  196  A    between atoms: _651  and  _652
REMARK  197  A    between atoms: _652  and  _653
REMARK  198  A    between atoms: _652  and  _655
REMARK  199  A    between atoms: _655  and  _656
REMARK  200  A    between atoms: _663  and  _664
REMARK  201  A    between atoms: _664  and  _665
REMARK  202  A    between atoms: _664  and  _667
REMARK  203  A    between atoms: _667  and  _668
REMARK  204  A    between atoms: _668  and  _669
REMARK  205  A    between atoms: _669  and  _670
REMARK  206  A    between atoms: _670  and  _671
REMARK  207  A    between atoms: _685  and  _686
REMARK  208  A    between atoms: _686  and  _687
REMARK  209  A    between atoms: _686  and  _689
REMARK  210  A    between atoms: _689  and  _690
REMARK  211  A    between atoms: _689  and  _691
REMARK  212  A    between atoms: _690  and  _692
REMARK  213  A    between atoms: _704  and  _705
REMARK  214  A    between atoms: _705  and  _706
REMARK  215  A    between atoms: _705  and  _708
REMARK  216  A    between atoms: _708  and  _709
REMARK  217  A    between atoms: _709  and  _710
REMARK  218  A    between atoms: _710  and  _711
REMARK  219  A    between atoms: _728  and  _729
REMARK  220  A    between atoms: _729  and  _730
REMARK  221  A    between atoms: _729  and  _732
REMARK  222  A    between atoms: _732  and  _733
REMARK  223  A    between atoms: _738  and  _739
REMARK  224  A    between atoms: _749  and  _750
REMARK  225  A    between atoms: _750  and  _751
REMARK  226  A    between atoms: _750  and  _753
REMARK  227  A    between atoms: _753  and  _754
REMARK  228  A    between atoms: _754  and  _755
REMARK  229  A    between atoms: _764  and  _765
REMARK  230  A    between atoms: _765  and  _766
REMARK  231  A    between atoms: _765  and  _768
REMARK  232  A    between atoms: _772  and  _773
REMARK  233  A    between atoms: _773  and  _774
REMARK  234  A    between atoms: _773  and  _776
REMARK  235  A    between atoms: _776  and  _777
REMARK  236  A    between atoms: _777  and  _778
REMARK  237  A    between atoms: _777  and  _779
REMARK  238  A    between atoms: _791  and  _792
REMARK  239  A    between atoms: _792  and  _793
REMARK  240  A    between atoms: _792  and  _795
REMARK  241  A    between atoms: _795  and  _796
REMARK  242  A    between atoms: _795  and  _797
REMARK  243  A    between atoms: _805  and  _806
REMARK  244  A    between atoms: _806  and  _807
REMARK  245  A    between atoms: _806  and  _809
REMARK  246  A    between atoms: _809  and  _810
REMARK  247  A    between atoms: _818  and  _819
REMARK  248  A    between atoms: _831  and  _832
REMARK  249  A    between atoms: _832  and  _833
REMARK  250  A    between atoms: _832  and  _835
REMARK  251  A    between atoms: _835  and  _836
REMARK  252  A    between atoms: _842  and  _843
REMARK  253  A    between atoms: _843  and  _844
REMARK  254  A    between atoms: _843  and  _846
REMARK  255  A    between atoms: _846  and  _847
REMARK  256  A    between atoms: _847  and  _848
REMARK  257  A    between atoms: _848  and  _849
REMARK  258  A    between atoms: _849  and  _850
REMARK  259  A    between atoms: _864  and  _865
REMARK  260  A    between atoms: _865  and  _866
REMARK  261  A    between atoms: _865  and  _868
REMARK  262  A    between atoms: _868  and  _869
REMARK  263  A    between atoms: _869  and  _870
REMARK  264  A    between atoms: _869  and  _871
REMARK  265  A    between atoms: _883  and  _884
REMARK  266  A    between atoms: _884  and  _885
REMARK  267  A    between atoms: _884  and  _887
REMARK  268  A    between atoms: _887  and  _888
REMARK  269  A    between atoms: _895  and  _896
REMARK  270  A    between atoms: _896  and  _897
REMARK  271  A    between atoms: _896  and  _899
REMARK  272  A    between atoms: _899  and  _900
REMARK  273  A    between atoms: _906  and  _907
REMARK  274  A    between atoms: _907  and  _908
REMARK  275  A    between atoms: _913  and  _914
REMARK  276  A    between atoms: _914  and  _915
REMARK  277  A    between atoms: _914  and  _917
REMARK  278  A    between atoms: _917  and  _918
REMARK  279  A    between atoms: _918  and  _919
REMARK  280  A    between atoms: _919  and  _920
REMARK  281  A    between atoms: _920  and  _921
REMARK  282  A    between atoms: _935  and  _936
REMARK  283  A    between atoms: _936  and  _937
REMARK  284  A    between atoms: _936  and  _939
REMARK  285  A    between atoms: _939  and  _940
REMARK  286  A    between atoms: _940  and  _941
REMARK  287  A    between atoms: _950  and  _951
REMARK  288  A    between atoms: _951  and  _952
REMARK  289  A    between atoms: _951  and  _954
REMARK  290  A    between atoms: _954  and  _955
REMARK  291  A    between atoms: _955  and  _956
REMARK  292  A    between atoms: _955  and  _957
REMARK  293  A    between atoms: _969  and  _970
REMARK  294  A    between atoms: _970  and  _971
REMARK  295  A    between atoms: _970  and  _973
REMARK  296  A    between atoms: _973  and  _974
REMARK  297  A    between atoms: _986  and  _987
REMARK  298  A    between atoms: _987  and  _988
REMARK  299  A    between atoms: _987  and  _990
REMARK  300  A    between atoms: _990  and  _991
REMARK  301  A    between atoms: _990  and  _992
REMARK  302  A    between atoms: _991  and  _993
REMARK  303  A    between atoms: _1005  and  _1006
REMARK  304  A    between atoms: _1006  and  _1007
REMARK  305  A    between atoms: _1006  and  _1009
REMARK  306  A    between atoms: _1009  and  _1010
REMARK  307  A    between atoms: _1019  and  _1020
REMARK  308  A    between atoms: _1020  and  _1021
REMARK  309  A    between atoms: _1020  and  _1023
REMARK  310  A    between atoms: _1023  and  _1024
REMARK  311  A    between atoms: _1024  and  _1025
REMARK  312  A    between atoms: _1024  and  _1026
REMARK  313  A    between atoms: _1038  and  _1039
REMARK  314  A    between atoms: _1039  and  _1040
REMARK  315  A    between atoms: _1039  and  _1042
REMARK  316  A    between atoms: _1042  and  _1043
REMARK  317  A    between atoms: _1042  and  _1044
REMARK  318  A    between atoms: _1043  and  _1045
REMARK  319  A    between atoms: _1058  and  _1059
REMARK  320  A    between atoms: _1071  and  _1072
REMARK  321  A    between atoms: _1072  and  _1073
REMARK  322  A    between atoms: _1072  and  _1075
REMARK  323  A    between atoms: _1075  and  _1076
REMARK  324  A    between atoms: _1085  and  _1086
REMARK  325  A    between atoms: _1086  and  _1087
REMARK  326  A    between atoms: _1086  and  _1089
REMARK  327  A    between atoms: _1089  and  _1090
REMARK  328  A    between atoms: _1090  and  _1091
REMARK  329  A    between atoms: _1091  and  _1092
REMARK  330  A    between atoms: _1092  and  _1093
REMARK  331  A    between atoms: _1107  and  _1108
REMARK  332  A    between atoms: _1108  and  _1109
REMARK  333  A    between atoms: _1108  and  _1111
REMARK  334  A    between atoms: _1111  and  _1112
REMARK  335  A    between atoms: _1112  and  _1113
REMARK  336  A    between atoms: _1124  and  _1125
REMARK  337  A    between atoms: _1125  and  _1126
REMARK  338  A    between atoms: _1125  and  _1128
REMARK  339  A    between atoms: _1128  and  _1129
REMARK  340  A    between atoms: _1136  and  _1137
REMARK  341  A    between atoms: _1137  and  _1138
REMARK  342  A    between atoms: _1137  and  _1140
REMARK  343  A    between atoms: _1140  and  _1141
REMARK  344  A    between atoms: _1141  and  _1142
REMARK  345  A    between atoms: _1142  and  _1143
REMARK  346  A    between atoms: _1160  and  _1161
REMARK  347  A    between atoms: _1161  and  _1162
REMARK  348  A    between atoms: _1161  and  _1164
REMARK  349  A    between atoms: _1164  and  _1165
REMARK  350  A    between atoms: _1164  and  _1166
REMARK  351  A    between atoms: _1174  and  _1175
REMARK  352  A    between atoms: _1175  and  _1176
REMARK  353  A    between atoms: _1175  and  _1178
REMARK  354  A    between atoms: _1178  and  _1179
REMARK  355  A    between atoms: _1179  and  _1180
REMARK  356  A    between atoms: _1179  and  _1181
REMARK  357  A    between atoms: _1193  and  _1194
REMARK  358  A    between atoms: _1194  and  _1195
REMARK  359  A    between atoms: _1194  and  _1197
REMARK  360  A    between atoms: _1197  and  _1198
REMARK  361  A    between atoms: _1197  and  _1199
REMARK  362  A    between atoms: _1207  and  _1208
REMARK  363  A    between atoms: _1208  and  _1209
REMARK  364  A    between atoms: _1208  and  _1211
REMARK  365  A    between atoms: _1211  and  _1212
REMARK  366  A    between atoms: _1211  and  _1213
REMARK  367  A    between atoms: _1212  and  _1214
REMARK  368  A    between atoms: _1226  and  _1227
REMARK  369  A    between atoms: _1227  and  _1228
REMARK  370  A    between atoms: _1227  and  _1230
REMARK  371  A    between atoms: _1230  and  _1231
REMARK  372  A    between atoms: _1230  and  _1232
REMARK  373  A    between atoms: _1242  and  _1243
REMARK  374  A    between atoms: _1243  and  _1244
REMARK  375  A    between atoms: _1243  and  _1246
REMARK  376  A    between atoms: _1246  and  _1247
REMARK  377  A    between atoms: _1254  and  _1255
REMARK  378  A    between atoms: _1255  and  _1256
REMARK  379  A    between atoms: _1255  and  _1258
REMARK  380  A    between atoms: _1258  and  _1259
REMARK  381  A    between atoms: _1258  and  _1260
REMARK  382  A    between atoms: _1268  and  _1269
REMARK  383  A    between atoms: _1269  and  _1270
REMARK  384  A    between atoms: _1275  and  _1276
REMARK  385  A    between atoms: _1276  and  _1277
REMARK  386  A    between atoms: _1276  and  _1279
REMARK  387  A    between atoms: _1279  and  _1280
REMARK  388  A    between atoms: _1279  and  _1281
REMARK  389  A    between atoms: _1280  and  _1282
REMARK  390  A    between atoms: _1294  and  _1295
REMARK  391  A    between atoms: _1295  and  _1296
REMARK  392  A    between atoms: _1301  and  _1302
REMARK  393  A    between atoms: _1302  and  _1303
REMARK  394  A    between atoms: _1302  and  _1305
REMARK  395  A    between atoms: _1305  and  _1306
REMARK  396  A    between atoms: _1306  and  _1307
REMARK  397  A    between atoms: _1307  and  _1308
REMARK  398  A    between atoms: _1318  and  _1319
REMARK  399  A    between atoms: _1319  and  _1320
REMARK  400  A    between atoms: _1319  and  _1322
REMARK  401  A    between atoms: _1322  and  _1323
REMARK  402  A    between atoms: _1322  and  _1324
REMARK  403  A    between atoms: _1332  and  _1333
REMARK  404  A    between atoms: _1333  and  _1334
REMARK  405  A    between atoms: _1333  and  _1336
REMARK  406  A    between atoms: _1336  and  _1337
REMARK  407  A    between atoms: _1337  and  _1338
REMARK  408  A    between atoms: _1338  and  _1339
REMARK  409  A    between atoms: _1339  and  _1340
REMARK  410  A    between atoms: _1354  and  _1355
REMARK  411  A    between atoms: _1355  and  _1356
REMARK  412  A    between atoms: _1355  and  _1358
REMARK  413  A    between atoms: _1364  and  _1365
REMARK  414  A    between atoms: _1365  and  _1366
REMARK  415  A    between atoms: _1365  and  _1368
REMARK  416  A    between atoms: _1368  and  _1369
REMARK  417  A    between atoms: _1376  and  _1377
REMARK  418  A    between atoms: _1377  and  _1378
REMARK  419  A    between atoms: _1377  and  _1380
REMARK  420  A    between atoms: _1380  and  _1381
REMARK  421  A    between atoms: _1381  and  _1382
REMARK  422  A    between atoms: _1381  and  _1383
REMARK  423  A    between atoms: _1395  and  _1396
REMARK  424  A    between atoms: _1396  and  _1399
REMARK  425  A    between atoms: _1399  and  _1400
REMARK  426  A    between atoms: _1399  and  _1401
REMARK  427  A    between atoms: _1400  and  _1402
REMARK  428  A    between atoms: _1422  and  _1425
REMARK  429  A    between atoms: _1424  and  _1428
REMARK  430  A    between atoms: _1425  and  _1427
REMARK  431  A    between atoms: _1443  and  _1444
REMARK  432  A    between atoms: _1443  and  _1446
REMARK  433  A    between atoms: _1446  and  _1447
REMARK  434  A    between atoms: _1457  and  _1458
REMARK  435  A    between atoms: _1458  and  _1459
REMARK  436  A    between atoms: _1458  and  _1461
REMARK  437  A    between atoms: _1461  and  _1462
REMARK  438  A    between atoms: _1462  and  _1463
REMARK  439  A    between atoms: _1462  and  _1464
REMARK  440  A    between atoms: _1476  and  _1477
REMARK  441  A    between atoms: _1477  and  _1478
REMARK  442  A    between atoms: _1483  and  _1484
REMARK  443  A    between atoms: _1484  and  _1485
REMARK  444  A    between atoms: _1484  and  _1487
REMARK  445  A    between atoms: _1487  and  _1488
REMARK  446  A    between atoms: _1487  and  _1489
REMARK  447  A    between atoms: _1497  and  _1498
REMARK  448  A    between atoms: _1498  and  _1499
REMARK  449  A    between atoms: _1498  and  _1501
REMARK  450  A    between atoms: _1501  and  _1502
REMARK  451  A    between atoms: _1501  and  _1503
REMARK  452  A    between atoms: _1502  and  _1504
REMARK  453  A    between atoms: _1516  and  _1517
REMARK  454  A    between atoms: _1517  and  _1518
REMARK  455  A    between atoms: _1517  and  _1520
REMARK  456  A    between atoms: _1526  and  _1527
REMARK  457  A    between atoms: _1527  and  _1528
REMARK  458  A    between atoms: _1527  and  _1530
REMARK  459  A    between atoms: _1530  and  _1531
REMARK  460  A    between atoms: _1531  and  _1532
REMARK  461  A    between atoms: _1532  and  _1533
REMARK  462  A    between atoms: _1533  and  _1534
REMARK  463  A    between atoms: _1548  and  _1549
REMARK  464  A    between atoms: _1549  and  _1550
REMARK  465  A    between atoms: _1549  and  _1552
REMARK  466  A    between atoms: _1552  and  _1553
REMARK  467  A    between atoms: _1559  and  _1560
REMARK  468  A    between atoms: _1560  and  _1561
REMARK  469  A    between atoms: _1566  and  _1567
REMARK  470  A    between atoms: _1567  and  _1568
REMARK  471  A    between atoms: _1567  and  _1570
REMARK  472  A    between atoms: _1570  and  _1571
REMARK  473  A    between atoms: _1570  and  _1572
REMARK  474  A    between atoms: _1580  and  _1581
REMARK  475  A    between atoms: _1581  and  _1582
REMARK  476  A    between atoms: _1581  and  _1584
REMARK  477  A    between atoms: _1584  and  _1585
REMARK  478  A    between atoms: _1585  and  _1586
REMARK  479  A    between atoms: _1586  and  _1587
REMARK  480  A    between atoms: _1587  and  _1588
REMARK  481  A    between atoms: _1602  and  _1603
REMARK  482  A    between atoms: _1603  and  _1604
REMARK  483  A    between atoms: _1603  and  _1606
REMARK  484  A    between atoms: _1612  and  _1613
REMARK  485  A    between atoms: _1613  and  _1614
REMARK  486  A    between atoms: _1613  and  _1616
REMARK  487  A    between atoms: _1616  and  _1617
REMARK  488  A    between atoms: _1632  and  _1633
REMARK  489  A    between atoms: _1633  and  _1634
REMARK  490  A    between atoms: _1633  and  _1636
REMARK  491  A    between atoms: _1636  and  _1637
REMARK  492  A    between atoms: _1637  and  _1638
REMARK  493  A    between atoms: _1638  and  _1639
REMARK  494  A    between atoms: _1649  and  _1650
REMARK  495  A    between atoms: _1650  and  _1651
REMARK  496  A    between atoms: _1650  and  _1653
REMARK  497  A    between atoms: _1653  and  _1654
REMARK  498  A    between atoms: _1654  and  _1655
REMARK  499  A    between atoms: _1664  and  _1665
REMARK  500  A    between atoms: _1665  and  _1666
REMARK  501  A    between atoms: _1665  and  _1668
REMARK  502  A    between atoms: _1674  and  _1675
REMARK  503  A    between atoms: _1675  and  _1676
REMARK  504  A    between atoms: _1675  and  _1678
REMARK  505  A    between atoms: _1678  and  _1679
REMARK  506  A    between atoms: _1679  and  _1680
REMARK  507  A    between atoms: _1679  and  _1681
REMARK  508  A    between atoms: _1693  and  _1694
REMARK  509  A    between atoms: _1694  and  _1695
REMARK  510  A    between atoms: _1694  and  _1697
REMARK  511  A    between atoms: _1697  and  _1698
REMARK  512  A    between atoms: _1698  and  _1699
REMARK  513  A    between atoms: _1710  and  _1711
REMARK  514  A    between atoms: _1711  and  _1712
REMARK  515  A    between atoms: _1711  and  _1714
REMARK  516  A    between atoms: _1720  and  _1721
REMARK  517  A    between atoms: _1721  and  _1722
REMARK  518  A    between atoms: _1727  and  _1728
REMARK  519  A    between atoms: _1728  and  _1729
REMARK  520  A    between atoms: _1728  and  _1731
REMARK  521  A    between atoms: _1737  and  _1738
REMARK  522  A    between atoms: _1738  and  _1739
REMARK  523  A    between atoms: _1738  and  _1741
REMARK  524  A    between atoms: _1741  and  _1742
REMARK  525  A    between atoms: _1749  and  _1750
REMARK  526  A    between atoms: _1750  and  _1751
REMARK  527  A    between atoms: _1750  and  _1753
REMARK  528  A    between atoms: _1753  and  _1754
REMARK  529  A    between atoms: _1753  and  _1755
REMARK  530  A    between atoms: _1754  and  _1756
REMARK  531  A    between atoms: _1768  and  _1769
REMARK  532  A    between atoms: _1769  and  _1772
REMARK  533  A    between atoms: _1772  and  _1773
REMARK  534  A    between atoms: _1791  and  _1793
REMARK  535  A    between atoms: _1792  and  _1794
REMARK  536  A    between atoms: _1814  and  _1815
REMARK  537  A    between atoms: _1814  and  _1817
REMARK  538  A    between atoms: _1817  and  _1818
REMARK  539  A    between atoms: _1817  and  _1819
REMARK  540  A    between atoms: _1818  and  _1820
REMARK  541  A    between atoms: _1833  and  _1834
REMARK  542  A    between atoms: _1834  and  _1835
REMARK  543  A    between atoms: _1840  and  _1841
REMARK  544  A    between atoms: _1841  and  _1842
REMARK  545  A    between atoms: _1841  and  _1844
REMARK  546  A    between atoms: _1844  and  _1845
REMARK  547  A    between atoms: _1845  and  _1846
REMARK  548  A    between atoms: _1857  and  _1858
REMARK  549  A    between atoms: _1858  and  _1859
REMARK  550  A    between atoms: _1858  and  _1861
REMARK  551  A    between atoms: _1861  and  _1862
REMARK  552  A    between atoms: _1877  and  _1878
REMARK  553  A    between atoms: _1878  and  _1879
REMARK  554  A    between atoms: _1884  and  _1885
REMARK  555  A    between atoms: _1885  and  _1886
REMARK  556  A    between atoms: _1885  and  _1888
REMARK  557  A    between atoms: _1888  and  _1889
REMARK  558  A    between atoms: _1888  and  _1890
REMARK  559  A    between atoms: _1900  and  _1901
REMARK  560  A    between atoms: _1901  and  _1902
REMARK  561  A    between atoms: _1907  and  _1908
REMARK  562  A    between atoms: _1908  and  _1909
REMARK  563  A    between atoms: _1908  and  _1911
REMARK  564  A    between atoms: _1911  and  _1912
REMARK  565  A    between atoms: _1927  and  _1928
REMARK  566  A    between atoms: _1928  and  _1929
REMARK  567  A    between atoms: _1928  and  _1931
REMARK  568  A    between atoms: _1931  and  _1932
REMARK  569  A    between atoms: _1937  and  _1938
REMARK  570  A    between atoms: _1948  and  _1949
REMARK  571  A    between atoms: _1949  and  _1950
REMARK  572  A    between atoms: _1949  and  _1952
REMARK  573  A    between atoms: _1952  and  _1953
REMARK  574  A    between atoms: _1959  and  _1960
REMARK  575  A    between atoms: _1960  and  _1961
REMARK  576  A    between atoms: _1960  and  _1963
REMARK  577  A    between atoms: _1969  and  _1970
REMARK  578  A    between atoms: _1970  and  _1971
REMARK  579  A    between atoms: _1970  and  _1973
REMARK  580  A    between atoms: _1973  and  _1974
REMARK  581  A    between atoms: _1979  and  _1980
REMARK  582  A    between atoms: _1990  and  _1991
REMARK  583  A    between atoms: _1991  and  _1992
REMARK  584  A    between atoms: _1991  and  _1994
REMARK  585  A    between atoms: _1994  and  _1995
REMARK  586  A    between atoms: _1995  and  _1996
REMARK  587  A    between atoms: _1995  and  _1997
REMARK  588  A    between atoms: _2009  and  _2010
REMARK  589  A    between atoms: _2010  and  _2011
REMARK  590  A    between atoms: _2010  and  _2013
REMARK  591  A    between atoms: _2013  and  _2014
REMARK  592  A    between atoms: _2013  and  _2015
REMARK  593  A    between atoms: _2025  and  _2026
REMARK  594  A    between atoms: _2026  and  _2027
REMARK  595  A    between atoms: _2026  and  _2029
REMARK  596  A    between atoms: _2035  and  _2036
REMARK  597  A    between atoms: _2036  and  _2037
REMARK  598  A    between atoms: _2036  and  _2039
REMARK  599  A    between atoms: _2039  and  _2040
REMARK  600  A    between atoms: _2040  and  _2041
REMARK  601  A    between atoms: _2050  and  _2051
REMARK  602  A    between atoms: _2051  and  _2052
REMARK  603  A    between atoms: _2051  and  _2054
REMARK  604  A    between atoms: _2054  and  _2055
REMARK  605  A    between atoms: _2055  and  _2056
REMARK  606  A    between atoms: _2056  and  _2057
REMARK  607  A    between atoms: _2057  and  _2058
REMARK  608  A    between atoms: _2072  and  _2073
REMARK  609  A    between atoms: _2073  and  _2074
REMARK  610  A    between atoms: _2073  and  _2076
REMARK  611  A    between atoms: _2076  and  _2077
REMARK  612  A    between atoms: _2076  and  _2078
REMARK  613  A    between atoms: _2088  and  _2089
REMARK  614  A    between atoms: _2089  and  _2090
REMARK  615  A    between atoms: _2089  and  _2092
REMARK  616  A    between atoms: _2092  and  _2093
REMARK  617  A    between atoms: _2092  and  _2094
REMARK  618  A    between atoms: _2102  and  _2103
REMARK  619  A    between atoms: _2103  and  _2104
REMARK  620  A    between atoms: _2103  and  _2106
REMARK  621  A    between atoms: _2106  and  _2107
REMARK  622  A    between atoms: _2106  and  _2108
REMARK  623  A    between atoms: _2118  and  _2119
REMARK  624  A    between atoms: _2119  and  _2120
REMARK  625  A    between atoms: _2119  and  _2122
REMARK  626  A    between atoms: _2122  and  _2123
REMARK  627  A    between atoms: _2122  and  _2124
REMARK  628  A    between atoms: _2123  and  _2125
REMARK  629  A    between atoms: _2137  and  _2138
REMARK  630  A    between atoms: _2138  and  _2139
REMARK  631  A    between atoms: _2138  and  _2141
REMARK  632  A    between atoms: _2141  and  _2142
REMARK  633  A    between atoms: _2141  and  _2143
REMARK  634  A    between atoms: _2151  and  _2152
REMARK  635  A    between atoms: _2152  and  _2153
REMARK  636  A    between atoms: _2152  and  _2155
REMARK  637  A    between atoms: _2155  and  _2156
REMARK  638  A    between atoms: _2156  and  _2157
REMARK  639  A    between atoms: _2157  and  _2158
REMARK  640  A    between atoms: _2158  and  _2159
REMARK  641  A    between atoms: _2173  and  _2174
REMARK  642  A    between atoms: _2174  and  _2175
REMARK  643  A    between atoms: _2174  and  _2177
REMARK  644  A    between atoms: _2177  and  _2178
REMARK  645  A    between atoms: _2190  and  _2191
REMARK  646  A    between atoms: _2191  and  _2192
REMARK  647  A    between atoms: _2191  and  _2194
REMARK  648  A    between atoms: _2194  and  _2195
REMARK  649  A    between atoms: _2204  and  _2205
REMARK  650  A    between atoms: _2205  and  _2206
REMARK  651  A    between atoms: _2205  and  _2208
REMARK  652  A    between atoms: _2208  and  _2209
REMARK  653  A    between atoms: _2216  and  _2217
REMARK  654  A    between atoms: _2217  and  _2218
REMARK  655  A    between atoms: _2217  and  _2220
REMARK  656  A    between atoms: _2220  and  _2221
REMARK  657  A    between atoms: _2228  and  _2229
REMARK  658  A    between atoms: _2229  and  _2230
REMARK  659  A    between atoms: _2229  and  _2232
REMARK  660  A    between atoms: _2232  and  _2233
REMARK  661  A    between atoms: _2233  and  _2234
REMARK  662  A    between atoms: _2243  and  _2244
REMARK  663  A    between atoms: _2244  and  _2245
REMARK  664  A    between atoms: _2244  and  _2247
REMARK  665  A    between atoms: _2247  and  _2248
REMARK  666  A    between atoms: _2248  and  _2249
REMARK  667  A    between atoms: _2260  and  _2261
REMARK  668  A    between atoms: _2261  and  _2262
REMARK  669  A    between atoms: _2261  and  _2264
REMARK  670  A    between atoms: _2264  and  _2265
REMARK  671  A    between atoms: _2270  and  _2271
REMARK  672  A    between atoms: _2281  and  _2282
REMARK  673  A    between atoms: _2282  and  _2283
REMARK  674  A    between atoms: _2282  and  _2285
REMARK  675  A    between atoms: _2291  and  _2292
REMARK  676  A    between atoms: _2292  and  _2293
REMARK  677  A    between atoms: _2292  and  _2295
REMARK  678  A    between atoms: _2295  and  _2296
REMARK  679  A    between atoms: _2315  and  _2316
REMARK  680  A    between atoms: _2316  and  _2317
REMARK  681  A    between atoms: _2316  and  _2319
REMARK  682  A    between atoms: _2319  and  _2320
REMARK  683  A    between atoms: _2320  and  _2321
REMARK  684  A    between atoms: _2330  and  _2331
REMARK  685  A    between atoms: _2331  and  _2332
REMARK  686  A    between atoms: _2331  and  _2334
REMARK  687  A    between atoms: _2334  and  _2335
REMARK  688  A    between atoms: _2341  and  _2342
REMARK  689  A    between atoms: _2342  and  _2343
REMARK  690  A    between atoms: _2342  and  _2345
REMARK  691  A    between atoms: _2345  and  _2346
REMARK  692  A    between atoms: _2352  and  _2353
REMARK  693  A    between atoms: _2353  and  _2354
REMARK  694  A    between atoms: _2353  and  _2356
REMARK  695  A    between atoms: _2362  and  _2363
REMARK  696  A    between atoms: _2363  and  _2364
REMARK  697  A    between atoms: _2369  and  _2370
REMARK  698  A    between atoms: _2370  and  _2371
REMARK  699  A    between atoms: _2376  and  _2377
REMARK  700  A    between atoms: _2377  and  _2378
REMARK  701  A    between atoms: _2377  and  _2380
REMARK  702  A    between atoms: _2380  and  _2381
REMARK  703  A    between atoms: _2387  and  _2388
REMARK  704  A    between atoms: _2388  and  _2389
REMARK  705  A    between atoms: _2388  and  _2391
REMARK  706  A    between atoms: _2391  and  _2392
REMARK  707  A    between atoms: _2407  and  _2408
REMARK  708  A    between atoms: _2408  and  _2409
REMARK  709  A    between atoms: _2408  and  _2411
REMARK  710  A    between atoms: _2411  and  _2412
REMARK  711  A    between atoms: _2411  and  _2413
REMARK  712  A    between atoms: _2421  and  _2422
REMARK  713  A    between atoms: _2422  and  _2423
REMARK  714  A    between atoms: _2422  and  _2425
REMARK  715  A    between atoms: _2425  and  _2426
REMARK  716  A    between atoms: _2425  and  _2427
REMARK  717  A    between atoms: _2437  and  _2438
REMARK  718  A    between atoms: _2438  and  _2439
REMARK  719  A    between atoms: _2438  and  _2441
REMARK  720  A    between atoms: _2441  and  _2442
REMARK  721  A    between atoms: _2442  and  _2443
REMARK  722  A    between atoms: _2443  and  _2444
REMARK  723  A    between atoms: _2461  and  _2462
REMARK  724  A    between atoms: _2462  and  _2463
REMARK  725  A    between atoms: _2462  and  _2465
REMARK  726  A    between atoms: _2465  and  _2466
REMARK  727  A    between atoms: _2465  and  _2467
REMARK  728  A    between atoms: _2475  and  _2476
REMARK  729  A    between atoms: _2476  and  _2477
REMARK  730  A    between atoms: _2476  and  _2479
REMARK  731  A    between atoms: _2479  and  _2480
REMARK  732  A    between atoms: _2487  and  _2488
REMARK  733  A    between atoms: _2488  and  _2489
REMARK  734  A    between atoms: _2488  and  _2491
REMARK  735  A    between atoms: _2491  and  _2492
REMARK  736  A    between atoms: _2491  and  _2493
REMARK  737  A    between atoms: _2501  and  _2502
REMARK  738  A    between atoms: _2502  and  _2503
REMARK  739  A    between atoms: _2508  and  _2509
REMARK  740  A    between atoms: _2509  and  _2510
REMARK  741  A    between atoms: _2509  and  _2512
REMARK  742  A    between atoms: _2512  and  _2513
REMARK  743  A    between atoms: _2513  and  _2514
REMARK  744  A    between atoms: _2524  and  _2525
REMARK  745  A    between atoms: _2537  and  _2538
REMARK  746  A    between atoms: _2538  and  _2539
REMARK  747  A    between atoms: _2538  and  _2541
REMARK  748  A    between atoms: _2541  and  _2542
REMARK  749  A    between atoms: _2542  and  _2543
REMARK  750  A    between atoms: _2543  and  _2544
REMARK  751  A    between atoms: _2554  and  _2555
REMARK  752  A    between atoms: _2555  and  _2556
REMARK  753  A    between atoms: _2561  and  _2562
REMARK  754  A    between atoms: _2562  and  _2563
REMARK  755  A    between atoms: _2562  and  _2565
REMARK  756  A    between atoms: _2565  and  _2566
REMARK  757  A    between atoms: _2566  and  _2567
REMARK  758  A    between atoms: _2567  and  _2568
REMARK  759  A    between atoms: _2585  and  _2586
REMARK  760  A    between atoms: _2586  and  _2587
REMARK  761  A    between atoms: _2592  and  _2593
REMARK  762  A    between atoms: _2593  and  _2594
REMARK  763  A    between atoms: _2593  and  _2596
REMARK  764  A    between atoms: _2596  and  _2597
REMARK  765  A    between atoms: _2596  and  _2598
REMARK  766  A    between atoms: _2606  and  _2607
REMARK  767  A    between atoms: _2607  and  _2608
REMARK  768  A    between atoms: _2607  and  _2610
REMARK  769  A    between atoms: _2610  and  _2611
REMARK  770  A    between atoms: _2611  and  _2612
REMARK  771  A    between atoms: _2612  and  _2613
REMARK  772  A    between atoms: _2613  and  _2614
REMARK  773  A    between atoms: _2628  and  _2629
REMARK  774  A    between atoms: _2629  and  _2630
REMARK  775  A    between atoms: _2629  and  _2632
REMARK  776  A    between atoms: _2632  and  _2633
REMARK  777  A    between atoms: _2632  and  _2634
REMARK  778  A    between atoms: _2644  and  _2645
REMARK  779  A    between atoms: _2645  and  _2646
REMARK  780  A    between atoms: _2645  and  _2648
REMARK  781  A    between atoms: _2648  and  _2649
REMARK  782  A    between atoms: _2648  and  _2650
REMARK  783  A    between atoms: _2649  and  _2651
REMARK  784  A    between atoms: _2663  and  _2664
REMARK  785  A    between atoms: _2664  and  _2665
REMARK  786  A    between atoms: _2664  and  _2667
REMARK  787  A    between atoms: _2667  and  _2668
REMARK  788  A    between atoms: _2668  and  _2669
REMARK  789  A    between atoms: _2668  and  _2670
REMARK  790  A    between atoms: _2682  and  _2683
REMARK  791  A    between atoms: _2683  and  _2684
REMARK  792  A    between atoms: _2683  and  _2686
REMARK  793  A    between atoms: _2686  and  _2687
REMARK  794  A    between atoms: _2699  and  _2700
REMARK  795  A    between atoms: _2700  and  _2701
REMARK  796  A    between atoms: _2700  and  _2703
REMARK  797  A    between atoms: _2703  and  _2704
REMARK  798  A    between atoms: _2704  and  _2705
REMARK  799  A    between atoms: _2704  and  _2706
REMARK  800  A    between atoms: _2718  and  _2719
REMARK  801  A    between atoms: _2719  and  _2720
REMARK  802  A    between atoms: _2719  and  _2722
REMARK  803  A    between atoms: _2722  and  _2723
REMARK  804  A    between atoms: _2723  and  _2724
REMARK  805  A    between atoms: _2724  and  _2725
REMARK  806  A    between atoms: _2725  and  _2726
REMARK  807  A    between atoms: _2740  and  _2741
REMARK  808  A    between atoms: _2741  and  _2742
REMARK  809  A    between atoms: _2741  and  _2744
REMARK  810  A    between atoms: _2744  and  _2745
REMARK  811  A    between atoms: _2745  and  _2746
REMARK  812  A    between atoms: _2755  and  _2756
REMARK  813  A    between atoms: _2756  and  _2757
REMARK  814  A    between atoms: _2756  and  _2759
REMARK  815  A    between atoms: _2759  and  _2760
REMARK  816  A    between atoms: _2767  and  _2768
REMARK  817  A    between atoms: _2768  and  _2769
REMARK  818  A    between atoms: _2768  and  _2771
REMARK  819  A    between atoms: _2771  and  _2772
REMARK  820  A    between atoms: _2772  and  _2773
REMARK  821  A    between atoms: _2784  and  _2785
REMARK  822  A    between atoms: _2785  and  _2786
REMARK  823  A    between atoms: _2785  and  _2788
REMARK  824  A    between atoms: _2788  and  _2789
REMARK  825  A    between atoms: _2788  and  _2790
REMARK  826  A    between atoms: _2798  and  _2799
REMARK  827  A    between atoms: _2799  and  _2800
REMARK  828  A    between atoms: _2799  and  _2802
REMARK  829  A    between atoms: _2802  and  _2803
REMARK  830  A    between atoms: _2803  and  _2804
REMARK  831  A    between atoms: _2813  and  _2814
REMARK  832  A    between atoms: _2814  and  _2815
REMARK  833  A    between atoms: _2814  and  _2817
REMARK  834  A    between atoms: _2817  and  _2818
REMARK  835  A    between atoms: _2823  and  _2824
REMARK  836  A    between atoms: _2834  and  _2835
REMARK  837  A    between atoms: _2835  and  _2838
REMARK  838  A    between atoms: _2838  and  _2839
REMARK  839  A    between atoms: _2839  and  _2840
REMARK  840  A    between atoms: _2839  and  _2841
REMARK  841  A    between atoms: _2884  and  _2885
REMARK  842  A    between atoms: _2884  and  _2887
REMARK  843  A    between atoms: _2887  and  _2888
REMARK  844  A    between atoms: _2888  and  _2889
REMARK  845  A    between atoms: _2899  and  _2900
REMARK  846  A    between atoms: _2900  and  _2901
REMARK  847  A    between atoms: _2900  and  _2903
REMARK  848  A    between atoms: _2903  and  _2904
REMARK  849  A    between atoms: _2904  and  _2905
REMARK  850  A    between atoms: _2905  and  _2906
REMARK  851  A    between atoms: _2923  and  _2924
REMARK  852  A    between atoms: _2924  and  _2925
REMARK  853  A    between atoms: _2924  and  _2927
REMARK  854  A    between atoms: _2927  and  _2928
REMARK  855  A    between atoms: _2928  and  _2929
REMARK  856  A    between atoms: _2929  and  _2930
REMARK  857  A    between atoms: _2947  and  _2948
REMARK  858  A    between atoms: _2948  and  _2949
REMARK  859  A    between atoms: _2948  and  _2951
REMARK  860  A    between atoms: _2951  and  _2952
REMARK  861  A    between atoms: _2951  and  _2953
REMARK  862  A    between atoms: _2952  and  _2954
REMARK  863  A    between atoms: _2966  and  _2967
REMARK  864  A    between atoms: _2967  and  _2968
REMARK  865  A    between atoms: _2967  and  _2970
REMARK  866  A    between atoms: _2970  and  _2971
REMARK  867  A    between atoms: _2971  and  _2972
REMARK  868  A    between atoms: _2972  and  _2973
REMARK  869  A    between atoms: _2973  and  _2974
REMARK  870  A    between atoms: _2988  and  _2989
REMARK  871  A    between atoms: _2989  and  _2990
REMARK  872  A    between atoms: _2989  and  _2992
REMARK  873  A    between atoms: _2992  and  _2993
REMARK  874  A    between atoms: _2993  and  _2994
REMARK  875  A    between atoms: _3003  and  _3004
REMARK  876  A    between atoms: _3004  and  _3005
REMARK  877  A    between atoms: _3004  and  _3007
REMARK  878  A    between atoms: _3007  and  _3008
REMARK  879  A    between atoms: _3007  and  _3009
REMARK  880  A    between atoms: _3008  and  _3010
REMARK  881  A    between atoms: _3022  and  _3023
REMARK  882  A    between atoms: _3023  and  _3024
REMARK  883  A    between atoms: _3023  and  _3026
REMARK  884  A    between atoms: _3026  and  _3027
REMARK  885  A    between atoms: _3026  and  _3028
REMARK  886  A    between atoms: _3038  and  _3039
REMARK  887  A    between atoms: _3039  and  _3040
REMARK  888  A    between atoms: _3039  and  _3042
REMARK  889  A    between atoms: _3042  and  _3043
REMARK  890  A    between atoms: _3043  and  _3044
REMARK  891  A    between atoms: _3044  and  _3045
REMARK  892  A    between atoms: _3045  and  _3046
REMARK  893  A    between atoms: _3060  and  _3061
REMARK  894  A    between atoms: _3061  and  _3062
REMARK  895  A    between atoms: _3061  and  _3064
REMARK  896  A    between atoms: _3064  and  _3065
REMARK  897  A    between atoms: _3065  and  _3066
REMARK  898  A    between atoms: _3066  and  _3067
REMARK  899  A    between atoms: _3067  and  _3068
REMARK  900  A    between atoms: _3082  and  _3083
REMARK  901  A    between atoms: _3083  and  _3084
REMARK  902  A    between atoms: _3083  and  _3086
REMARK  903  A    between atoms: _3086  and  _3087
REMARK  904  A    between atoms: _3099  and  _3100
REMARK  905  A    between atoms: _3100  and  _3101
REMARK  906  A    between atoms: _3100  and  _3103
REMARK  907  A    between atoms: _3103  and  _3104
REMARK  908  A    between atoms: _3110  and  _3111
REMARK  909  A    between atoms: _3111  and  _3112
REMARK  910  A    between atoms: _3111  and  _3114
REMARK  911  A    between atoms: _3114  and  _3115
REMARK  912  A    between atoms: _3115  and  _3116
REMARK  913  A    between atoms: _3127  and  _3128
REMARK  914  A    between atoms: _3128  and  _3129
REMARK  915  A    between atoms: _3128  and  _3131
REMARK  916  A    between atoms: _3131  and  _3132
REMARK  917  A    between atoms: _3147  and  _3148
REMARK  918  A    between atoms: _3148  and  _3149
REMARK  919  A    between atoms: _3148  and  _3151
REMARK  920  A    between atoms: _3151  and  _3152
REMARK  921  A    between atoms: _3151  and  _3153
REMARK  922  A    between atoms: _3152  and  _3154
REMARK  923  A    between atoms: _3166  and  _3167
REMARK  924  A    between atoms: _3167  and  _3168
REMARK  925  A    between atoms: _3173  and  _3174
REMARK  926  A    between atoms: _3174  and  _3175
REMARK  927  A    between atoms: _3174  and  _3177
REMARK  928  A    between atoms: _3177  and  _3178
REMARK  929  A    between atoms: _3183  and  _3184
REMARK  930  A    between atoms: _3195  and  _3196
REMARK  931  A    between atoms: _3208  and  _3209
REMARK  932  A    between atoms: _3209  and  _3210
REMARK  933  A    between atoms: _3209  and  _3212
REMARK  934  A    between atoms: _3212  and  _3213
REMARK  935  A    between atoms: _3212  and  _3214
REMARK  936  A    between atoms: _3213  and  _3215
REMARK  937  A    between atoms: _3227  and  _3228
REMARK  938  A    between atoms: _3228  and  _3229
REMARK  939  A    between atoms: _3228  and  _3231
REMARK  940  A    between atoms: _3231  and  _3232
REMARK  941  A    between atoms: _3231  and  _3233
REMARK  942  A    between atoms: _3241  and  _3242
REMARK  943  A    between atoms: _3242  and  _3243
REMARK  944  A    between atoms: _3242  and  _3245
REMARK  945  A    between atoms: _3245  and  _3246
REMARK  946  A    between atoms: _3246  and  _3247
REMARK  947  A    between atoms: _3246  and  _3248
REMARK  948  A    between atoms: _3260  and  _3261
REMARK  949  A    between atoms: _3261  and  _3262
REMARK  950  A    between atoms: _3261  and  _3264
REMARK  951  A    between atoms: _3264  and  _3265
REMARK  952  A    between atoms: _3280  and  _3281
REMARK  953  A    between atoms: _3281  and  _3282
REMARK  954  A    between atoms: _3281  and  _3284
REMARK  955  A    between atoms: _3284  and  _3285
REMARK  956  A    between atoms: _3284  and  _3286
REMARK  957  A    between atoms: _3296  and  _3297
REMARK  958  A    between atoms: _3297  and  _3298
REMARK  959  A    between atoms: _3297  and  _3300
REMARK  960  A    between atoms: _3300  and  _3301
REMARK  961  A    between atoms: _3301  and  _3302
REMARK                            x       y       z     vdW  Elec       q    Type
REMARK                         _______ _______ _______ _____ _____    ______ ____
ROOT
ATOM      1  N   UNL     1      -8.346  20.012  40.338  0.00  0.00    -0.163 NA
ATOM      2  H   UNL     1      -7.579  20.467  40.813  0.00  0.00    +0.163 HD
ENDROOT
TORSDOF 0
REMARK  Name = /Users/mlugowska/PhD/ML_residence_time_prediction/protein_files/5J20_protein.pdb
REMARK  961 active torsions:
REMARK  status: ('A' for Active; 'I' for Inactive)
REMARK    1  A    between atoms: _2  and  _3
REMARK    2  A    between atoms: _2  and  _5
REMARK    3  A    between atoms: _10  and  _11
REMARK    4  A    between atoms: _11  and  _12
REMARK    5  A    between atoms: _11  and  _14
REMARK    6  A    between atoms: _14  and  _15
REMARK    7  A    between atoms: _14  and  _16
REMARK    8  A    between atoms: _26  and  _27
REMARK    9  A    between atoms: _27  and  _28
REMARK   10  A    between atoms: _27  and  _30
REMARK   11  A    between atoms: _30  and  _31
REMARK   12  A    between atoms: _31  and  _32
REMARK   13  A    between atoms: _41  and  _42
REMARK   14  A    between atoms: _42  and  _43
REMARK   15  A    between atoms: _42  and  _45
REMARK   16  A    between atoms: _45  and  _46
REMARK   17  A    between atoms: _45  and  _47
REMARK   18  A    between atoms: _55  and  _56
REMARK   19  A    between atoms: _56  and  _57
REMARK   20  A    between atoms: _56  and  _59
REMARK   21  A    between atoms: _59  and  _60
REMARK   22  A    between atoms: _75  and  _76
REMARK   23  A    between atoms: _76  and  _77
REMARK   24  A    between atoms: _76  and  _79
REMARK   25  A    between atoms: _85  and  _86
REMARK   26  A    between atoms: _86  and  _87
REMARK   27  A    between atoms: _86  and  _89
REMARK   28  A    between atoms: _89  and  _90
REMARK   29  A    between atoms: _105  and  _106
REMARK   30  A    between atoms: _106  and  _107
REMARK   31  A    between atoms: _106  and  _109
REMARK   32  A    between atoms: _109  and  _110
REMARK   33  A    between atoms: _110  and  _111
REMARK   34  A    between atoms: _122  and  _123
REMARK   35  A    between atoms: _123  and  _124
REMARK   36  A    between atoms: _123  and  _126
REMARK   37  A    between atoms: _132  and  _133
REMARK   38  A    between atoms: _133  and  _134
REMARK   39  A    between atoms: _133  and  _136
REMARK   40  A    between atoms: _136  and  _137
REMARK   41  A    between atoms: _137  and  _138
REMARK   42  A    between atoms: _147  and  _148
REMARK   43  A    between atoms: _148  and  _149
REMARK   44  A    between atoms: _148  and  _151
REMARK   45  A    between atoms: _151  and  _152
REMARK   46  A    between atoms: _151  and  _153
REMARK   47  A    between atoms: _152  and  _154
REMARK   48  A    between atoms: _166  and  _167
REMARK   49  A    between atoms: _167  and  _168
REMARK   50  A    between atoms: _167  and  _170
REMARK   51  A    between atoms: _176  and  _177
REMARK   52  A    between atoms: _177  and  _178
REMARK   53  A    between atoms: _177  and  _180
REMARK   54  A    between atoms: _180  and  _181
REMARK   55  A    between atoms: _181  and  _182
REMARK   56  A    between atoms: _193  and  _194
REMARK   57  A    between atoms: _194  and  _195
REMARK   58  A    between atoms: _194  and  _197
REMARK   59  A    between atoms: _197  and  _198
REMARK   60  A    between atoms: _198  and  _199
REMARK   61  A    between atoms: _198  and  _200
REMARK   62  A    between atoms: _212  and  _213
REMARK   63  A    between atoms: _213  and  _214
REMARK   64  A    between atoms: _213  and  _216
REMARK   65  A    between atoms: _216  and  _217
REMARK   66  A    between atoms: _217  and  _218
REMARK   67  A    between atoms: _218  and  _219
REMARK   68  A    between atoms: _229  and  _230
REMARK   69  A    between atoms: _230  and  _231
REMARK   70  A    between atoms: _230  and  _233
REMARK   71  A    between atoms: _233  and  _234
REMARK   72  A    between atoms: _240  and  _241
REMARK   73  A    between atoms: _241  and  _242
REMARK   74  A    between atoms: _241  and  _244
REMARK   75  A    between atoms: _244  and  _245
REMARK   76  A    between atoms: _245  and  _246
REMARK   77  A    between atoms: _245  and  _247
REMARK   78  A    between atoms: _259  and  _260
REMARK   79  A    between atoms: _260  and  _261
REMARK   80  A    between atoms: _260  and  _263
REMARK   81  A    between atoms: _263  and  _264
REMARK   82  A    between atoms: _263  and  _265
REMARK   83  A    between atoms: _264  and  _266
REMARK   84  A    between atoms: _278  and  _279
REMARK   85  A    between atoms: _279  and  _280
REMARK   86  A    between atoms: _279  and  _282
REMARK   87  A    between atoms: _282  and  _283
REMARK   88  A    between atoms: _282  and  _284
REMARK   89  A    between atoms: _283  and  _285
REMARK   90  A    between atoms: _297  and  _298
REMARK   91  A    between atoms: _298  and  _299
REMARK   92  A    between atoms: _298  and  _301
REMARK   93  A    between atoms: _301  and  _302
REMARK   94  A    between atoms: _311  and  _312
REMARK   95  A    between atoms: _312  and  _313
REMARK   96  A    between atoms: _312  and  _315
REMARK   97  A    between atoms: _315  and  _316
REMARK   98  A    between atoms: _315  and  _317
REMARK   99  A    between atoms: _325  and  _326
REMARK  100  A    between atoms: _326  and  _327
REMARK  101  A    between atoms: _326  and  _329
REMARK  102  A    between atoms: _329  and  _330
REMARK  103  A    between atoms: _345  and  _346
REMARK  104  A    between atoms: _346  and  _347
REMARK  105  A    between atoms: _346  and  _349
REMARK  106  A    between atoms: _349  and  _350
REMARK  107  A    between atoms: _355  and  _356
REMARK  108  A    between atoms: _366  and  _367
REMARK  109  A    between atoms: _367  and  _368
REMARK  110  A    between atoms: _367  and  _370
REMARK  111  A    between atoms: _370  and  _371
REMARK  112  A    between atoms: _377  and  _378
REMARK  113  A    between atoms: _378  and  _379
REMARK  114  A    between atoms: _378  and  _381
REMARK  115  A    between atoms: _381  and  _382
REMARK  116  A    between atoms: _391  and  _392
REMARK  117  A    between atoms: _392  and  _393
REMARK  118  A    between atoms: _392  and  _395
REMARK  119  A    between atoms: _395  and  _396
REMARK  120  A    between atoms: _396  and  _397
REMARK  121  A    between atoms: _397  and  _398
REMARK  122  A    between atoms: _398  and  _399
REMARK  123  A    between atoms: _413  and  _414
REMARK  124  A    between atoms: _414  and  _415
REMARK  125  A    between atoms: _414  and  _417
REMARK  126  A    between atoms: _417  and  _418
REMARK  127  A    between atoms: _418  and  _419
REMARK  128  A    between atoms: _428  and  _429
REMARK  129  A    between atoms: _429  and  _430
REMARK  130  A    between atoms: _429  and  _432
REMARK  131  A    between atoms: _432  and  _433
REMARK  132  A    between atoms: _432  and  _434
REMARK  133  A    between atoms: _433  and  _435
REMARK  134  A    between atoms: _447  and  _448
REMARK  135  A    between atoms: _448  and  _449
REMARK  136  A    between atoms: _448  and  _451
REMARK  137  A    between atoms: _451  and  _452
REMARK  138  A    between atoms: _467  and  _468
REMARK  139  A    between atoms: _468  and  _469
REMARK  140  A    between atoms: _468  and  _471
REMARK  141  A    between atoms: _471  and  _472
REMARK  142  A    between atoms: _472  and  _473
REMARK  143  A    between atoms: _472  and  _474
REMARK  144  A    between atoms: _486  and  _487
REMARK  145  A    between atoms: _487  and  _488
REMARK  146  A    between atoms: _487  and  _490
REMARK  147  A    between atoms: _490  and  _491
REMARK  148  A    between atoms: _491  and  _492
REMARK  149  A    between atoms: _492  and  _493
REMARK  150  A    between atoms: _510  and  _511
REMARK  151  A    between atoms: _511  and  _512
REMARK  152  A    between atoms: _511  and  _514
REMARK  153  A    between atoms: _514  and  _515
REMARK  154  A    between atoms: _515  and  _516
REMARK  155  A    between atoms: _525  and  _526
REMARK  156  A    between atoms: _526  and  _527
REMARK  157  A    between atoms: _526  and  _529
REMARK  158  A    between atoms: _529  and  _530
REMARK  159  A    between atoms: _530  and  _531
REMARK  160  A    between atoms: _530  and  _532
REMARK  161  A    between atoms: _544  and  _545
REMARK  162  A    between atoms: _545  and  _546
REMARK  163  A    between atoms: _545  and  _548
REMARK  164  A    between atoms: _548  and  _549
REMARK  165  A    between atoms: _548  and  _550
REMARK  166  A    between atoms: _549  and  _551
REMARK  167  A    between atoms: _563  and  _564
REMARK  168  A    between atoms: _564  and  _565
REMARK  169  A    between atoms: _564  and  _567
REMARK  170  A    between atoms: _567  and  _568
REMARK  171  A    between atoms: _574  and  _575
REMARK  172  A    between atoms: _575  and  _576
REMARK  173  A    between atoms: _575  and  _578
REMARK  174  A    between atoms: _578  and  _579
REMARK  175  A    between atoms: _588  and  _589
REMARK  176  A    between atoms: _589  and  _590
REMARK  177  A    between atoms: _589  and  _592
REMARK  178  A    between atoms: _592  and  _593
REMARK  179  A    between atoms: _599  and  _600
REMARK  180  A    between atoms: _600  and  _601
REMARK  181  A    between atoms: _600  and  _603
REMARK  182  A    between atoms: _603  and  _604
REMARK  183  A    between atoms: _610  and  _611
REMARK  184  A    between atoms: _611  and  _612
REMARK  185  A    between atoms: _611  and  _614
REMARK  186  A    between atoms: _614  and  _615
REMARK  187  A    between atoms: _622  and  _623
REMARK  188  A    between atoms: _623  and  _624
REMARK  189  A    between atoms: _623  and  _626
REMARK  190  A    between atoms: _632  and  _633
REMARK  191  A    between atoms: _633  and  _634
REMARK  192  A    between atoms: _633  and  _636
REMARK  193  A    between atoms: _636  and  _637
REMARK  194  A    between atoms: _637  and  _638
REMARK  195  A    between atoms: _637  and  _639
REMARK  196  A    between atoms: _651  and  _652
REMARK  197  A    between atoms: _652  and  _653
REMARK  198  A    between atoms: _652  and  _655
REMARK  199  A    between atoms: _655  and  _656
REMARK  200  A    between atoms: _663  and  _664
REMARK  201  A    between atoms: _664  and  _665
REMARK  202  A    between atoms: _664  and  _667
REMARK  203  A    between atoms: _667  and  _668
REMARK  204  A    between atoms: _668  and  _669
REMARK  205  A    between atoms: _669  and  _670
REMARK  206  A    between atoms: _670  and  _671
REMARK  207  A    between atoms: _685  and  _686
REMARK  208  A    between atoms: _686  and  _687
REMARK  209  A    between atoms: _686  and  _689
REMARK  210  A    between atoms: _689  and  _690
REMARK  211  A    between atoms: _689  and  _691
REMARK  212  A    between atoms: _690  and  _692
REMARK  213  A    between atoms: _704  and  _705
REMARK  214  A    between atoms: _705  and  _706
REMARK  215  A    between atoms: _705  and  _708
REMARK  216  A    between atoms: _708  and  _709
REMARK  217  A    between atoms: _709  and  _710
REMARK  218  A    between atoms: _710  and  _711
REMARK  219  A    between atoms: _728  and  _729
REMARK  220  A    between atoms: _729  and  _730
REMARK  221  A    between atoms: _729  and  _732
REMARK  222  A    between atoms: _732  and  _733
REMARK  223  A    between atoms: _738  and  _739
REMARK  224  A    between atoms: _749  and  _750
REMARK  225  A    between atoms: _750  and  _751
REMARK  226  A    between atoms: _750  and  _753
REMARK  227  A    between atoms: _753  and  _754
REMARK  228  A    between atoms: _754  and  _755
REMARK  229  A    between atoms: _764  and  _765
REMARK  230  A    between atoms: _765  and  _766
REMARK  231  A    between atoms: _765  and  _768
REMARK  232  A    between atoms: _772  and  _773
REMARK  233  A    between atoms: _773  and  _774
REMARK  234  A    between atoms: _773  and  _776
REMARK  235  A    between atoms: _776  and  _777
REMARK  236  A    between atoms: _777  and  _778
REMARK  237  A    between atoms: _777  and  _779
REMARK  238  A    between atoms: _791  and  _792
REMARK  239  A    between atoms: _792  and  _793
REMARK  240  A    between atoms: _792  and  _795
REMARK  241  A    between atoms: _795  and  _796
REMARK  242  A    between atoms: _795  and  _797
REMARK  243  A    between atoms: _805  and  _806
REMARK  244  A    between atoms: _806  and  _807
REMARK  245  A    between atoms: _806  and  _809
REMARK  246  A    between atoms: _809  and  _810
REMARK  247  A    between atoms: _818  and  _819
REMARK  248  A    between atoms: _831  and  _832
REMARK  249  A    between atoms: _832  and  _833
REMARK  250  A    between atoms: _832  and  _835
REMARK  251  A    between atoms: _835  and  _836
REMARK  252  A    between atoms: _842  and  _843
REMARK  253  A    between atoms: _843  and  _844
REMARK  254  A    between atoms: _843  and  _846
REMARK  255  A    between atoms: _846  and  _847
REMARK  256  A    between atoms: _847  and  _848
REMARK  257  A    between atoms: _848  and  _849
REMARK  258  A    between atoms: _849  and  _850
REMARK  259  A    between atoms: _864  and  _865
REMARK  260  A    between atoms: _865  and  _866
REMARK  261  A    between atoms: _865  and  _868
REMARK  262  A    between atoms: _868  and  _869
REMARK  263  A    between atoms: _869  and  _870
REMARK  264  A    between atoms: _869  and  _871
REMARK  265  A    between atoms: _883  and  _884
REMARK  266  A    between atoms: _884  and  _885
REMARK  267  A    between atoms: _884  and  _887
REMARK  268  A    between atoms: _887  and  _888
REMARK  269  A    between atoms: _895  and  _896
REMARK  270  A    between atoms: _896  and  _897
REMARK  271  A    between atoms: _896  and  _899
REMARK  272  A    between atoms: _899  and  _900
REMARK  273  A    between atoms: _906  and  _907
REMARK  274  A    between atoms: _907  and  _908
REMARK  275  A    between atoms: _913  and  _914
REMARK  276  A    between atoms: _914  and  _915
REMARK  277  A    between atoms: _914  and  _917
REMARK  278  A    between atoms: _917  and  _918
REMARK  279  A    between atoms: _918  and  _919
REMARK  280  A    between atoms: _919  and  _920
REMARK  281  A    between atoms: _920  and  _921
REMARK  282  A    between atoms: _935  and  _936
REMARK  283  A    between atoms: _936  and  _937
REMARK  284  A    between atoms: _936  and  _939
REMARK  285  A    between atoms: _939  and  _940
REMARK  286  A    between atoms: _940  and  _941
REMARK  287  A    between atoms: _950  and  _951
REMARK  288  A    between atoms: _951  and  _952
REMARK  289  A    between atoms: _951  and  _954
REMARK  290  A    between atoms: _954  and  _955
REMARK  291  A    between atoms: _955  and  _956
REMARK  292  A    between atoms: _955  and  _957
REMARK  293  A    between atoms: _969  and  _970
REMARK  294  A    between atoms: _970  and  _971
REMARK  295  A    between atoms: _970  and  _973
REMARK  296  A    between atoms: _973  and  _974
REMARK  297  A    between atoms: _986  and  _987
REMARK  298  A    between atoms: _987  and  _988
REMARK  299  A    between atoms: _987  and  _990
REMARK  300  A    between atoms: _990  and  _991
REMARK  301  A    between atoms: _990  and  _992
REMARK  302  A    between atoms: _991  and  _993
REMARK  303  A    between atoms: _1005  and  _1006
REMARK  304  A    between atoms: _1006  and  _1007
REMARK  305  A    between atoms: _1006  and  _1009
REMARK  306  A    between atoms: _1009  and  _1010
REMARK  307  A    between atoms: _1019  and  _1020
REMARK  308  A    between atoms: _1020  and  _1021
REMARK  309  A    between atoms: _1020  and  _1023
REMARK  310  A    between atoms: _1023  and  _1024
REMARK  311  A    between atoms: _1024  and  _1025
REMARK  312  A    between atoms: _1024  and  _1026
REMARK  313  A    between atoms: _1038  and  _1039
REMARK  314  A    between atoms: _1039  and  _1040
REMARK  315  A    between atoms: _1039  and  _1042
REMARK  316  A    between atoms: _1042  and  _1043
REMARK  317  A    between atoms: _1042  and  _1044
REMARK  318  A    between atoms: _1043  and  _1045
REMARK  319  A    between atoms: _1058  and  _1059
REMARK  320  A    between atoms: _1071  and  _1072
REMARK  321  A    between atoms: _1072  and  _1073
REMARK  322  A    between atoms: _1072  and  _1075
REMARK  323  A    between atoms: _1075  and  _1076
REMARK  324  A    between atoms: _1085  and  _1086
REMARK  325  A    between atoms: _1086  and  _1087
REMARK  326  A    between atoms: _1086  and  _1089
REMARK  327  A    between atoms: _1089  and  _1090
REMARK  328  A    between atoms: _1090  and  _1091
REMARK  329  A    between atoms: _1091  and  _1092
REMARK  330  A    between atoms: _1092  and  _1093
REMARK  331  A    between atoms: _1107  and  _1108
REMARK  332  A    between atoms: _1108  and  _1109
REMARK  333  A    between atoms: _1108  and  _1111
REMARK  334  A    between atoms: _1111  and  _1112
REMARK  335  A    between atoms: _1112  and  _1113
REMARK  336  A    between atoms: _1124  and  _1125
REMARK  337  A    between atoms: _1125  and  _1126
REMARK  338  A    between atoms: _1125  and  _1128
REMARK  339  A    between atoms: _1128  and  _1129
REMARK  340  A    between atoms: _1136  and  _1137
REMARK  341  A    between atoms: _1137  and  _1138
REMARK  342  A    between atoms: _1137  and  _1140
REMARK  343  A    between atoms: _1140  and  _1141
REMARK  344  A    between atoms: _1141  and  _1142
REMARK  345  A    between atoms: _1142  and  _1143
REMARK  346  A    between atoms: _1160  and  _1161
REMARK  347  A    between atoms: _1161  and  _1162
REMARK  348  A    between atoms: _1161  and  _1164
REMARK  349  A    between atoms: _1164  and  _1165
REMARK  350  A    between atoms: _1164  and  _1166
REMARK  351  A    between atoms: _1174  and  _1175
REMARK  352  A    between atoms: _1175  and  _1176
REMARK  353  A    between atoms: _1175  and  _1178
REMARK  354  A    between atoms: _1178  and  _1179
REMARK  355  A    between atoms: _1179  and  _1180
REMARK  356  A    between atoms: _1179  and  _1181
REMARK  357  A    between atoms: _1193  and  _1194
REMARK  358  A    between atoms: _1194  and  _1195
REMARK  359  A    between atoms: _1194  and  _1197
REMARK  360  A    between atoms: _1197  and  _1198
REMARK  361  A    between atoms: _1197  and  _1199
REMARK  362  A    between atoms: _1207  and  _1208
REMARK  363  A    between atoms: _1208  and  _1209
REMARK  364  A    between atoms: _1208  and  _1211
REMARK  365  A    between atoms: _1211  and  _1212
REMARK  366  A    between atoms: _1211  and  _1213
REMARK  367  A    between atoms: _1212  and  _1214
REMARK  368  A    between atoms: _1226  and  _1227
REMARK  369  A    between atoms: _1227  and  _1228
REMARK  370  A    between atoms: _1227  and  _1230
REMARK  371  A    between atoms: _1230  and  _1231
REMARK  372  A    between atoms: _1230  and  _1232
REMARK  373  A    between atoms: _1242  and  _1243
REMARK  374  A    between atoms: _1243  and  _1244
REMARK  375  A    between atoms: _1243  and  _1246
REMARK  376  A    between atoms: _1246  and  _1247
REMARK  377  A    between atoms: _1254  and  _1255
REMARK  378  A    between atoms: _1255  and  _1256
REMARK  379  A    between atoms: _1255  and  _1258
REMARK  380  A    between atoms: _1258  and  _1259
REMARK  381  A    between atoms: _1258  and  _1260
REMARK  382  A    between atoms: _1268  and  _1269
REMARK  383  A    between atoms: _1269  and  _1270
REMARK  384  A    between atoms: _1275  and  _1276
REMARK  385  A    between atoms: _1276  and  _1277
REMARK  386  A    between atoms: _1276  and  _1279
REMARK  387  A    between atoms: _1279  and  _1280
REMARK  388  A    between atoms: _1279  and  _1281
REMARK  389  A    between atoms: _1280  and  _1282
REMARK  390  A    between atoms: _1294  and  _1295
REMARK  391  A    between atoms: _1295  and  _1296
REMARK  392  A    between atoms: _1301  and  _1302
REMARK  393  A    between atoms: _1302  and  _1303
REMARK  394  A    between atoms: _1302  and  _1305
REMARK  395  A    between atoms: _1305  and  _1306
REMARK  396  A    between atoms: _1306  and  _1307
REMARK  397  A    between atoms: _1307  and  _1308
REMARK  398  A    between atoms: _1318  and  _1319
REMARK  399  A    between atoms: _1319  and  _1320
REMARK  400  A    between atoms: _1319  and  _1322
REMARK  401  A    between atoms: _1322  and  _1323
REMARK  402  A    between atoms: _1322  and  _1324
REMARK  403  A    between atoms: _1332  and  _1333
REMARK  404  A    between atoms: _1333  and  _1334
REMARK  405  A    between atoms: _1333  and  _1336
REMARK  406  A    between atoms: _1336  and  _1337
REMARK  407  A    between atoms: _1337  and  _1338
REMARK  408  A    between atoms: _1338  and  _1339
REMARK  409  A    between atoms: _1339  and  _1340
REMARK  410  A    between atoms: _1354  and  _1355
REMARK  411  A    between atoms: _1355  and  _1356
REMARK  412  A    between atoms: _1355  and  _1358
REMARK  413  A    between atoms: _1364  and  _1365
REMARK  414  A    between atoms: _1365  and  _1366
REMARK  415  A    between atoms: _1365  and  _1368
REMARK  416  A    between atoms: _1368  and  _1369
REMARK  417  A    between atoms: _1376  and  _1377
REMARK  418  A    between atoms: _1377  and  _1378
REMARK  419  A    between atoms: _1377  and  _1380
REMARK  420  A    between atoms: _1380  and  _1381
REMARK  421  A    between atoms: _1381  and  _1382
REMARK  422  A    between atoms: _1381  and  _1383
REMARK  423  A    between atoms: _1395  and  _1396
REMARK  424  A    between atoms: _1396  and  _1399
REMARK  425  A    between atoms: _1399  and  _1400
REMARK  426  A    between atoms: _1399  and  _1401
REMARK  427  A    between atoms: _1400  and  _1402
REMARK  428  A    between atoms: _1422  and  _1425
REMARK  429  A    between atoms: _1424  and  _1428
REMARK  430  A    between atoms: _1425  and  _1427
REMARK  431  A    between atoms: _1443  and  _1444
REMARK  432  A    between atoms: _1443  and  _1446
REMARK  433  A    between atoms: _1446  and  _1447
REMARK  434  A    between atoms: _1457  and  _1458
REMARK  435  A    between atoms: _1458  and  _1459
REMARK  436  A    between atoms: _1458  and  _1461
REMARK  437  A    between atoms: _1461  and  _1462
REMARK  438  A    between atoms: _1462  and  _1463
REMARK  439  A    between atoms: _1462  and  _1464
REMARK  440  A    between atoms: _1476  and  _1477
REMARK  441  A    between atoms: _1477  and  _1478
REMARK  442  A    between atoms: _1483  and  _1484
REMARK  443  A    between atoms: _1484  and  _1485
REMARK  444  A    between atoms: _1484  and  _1487
REMARK  445  A    between atoms: _1487  and  _1488
REMARK  446  A    between atoms: _1487  and  _1489
REMARK  447  A    between atoms: _1497  and  _1498
REMARK  448  A    between atoms: _1498  and  _1499
REMARK  449  A    between atoms: _1498  and  _1501
REMARK  450  A    between atoms: _1501  and  _1502
REMARK  451  A    between atoms: _1501  and  _1503
REMARK  452  A    between atoms: _1502  and  _1504
REMARK  453  A    between atoms: _1516  and  _1517
REMARK  454  A    between atoms: _1517  and  _1518
REMARK  455  A    between atoms: _1517  and  _1520
REMARK  456  A    between atoms: _1526  and  _1527
REMARK  457  A    between atoms: _1527  and  _1528
REMARK  458  A    between atoms: _1527  and  _1530
REMARK  459  A    between atoms: _1530  and  _1531
REMARK  460  A    between atoms: _1531  and  _1532
REMARK  461  A    between atoms: _1532  and  _1533
REMARK  462  A    between atoms: _1533  and  _1534
REMARK  463  A    between atoms: _1548  and  _1549
REMARK  464  A    between atoms: _1549  and  _1550
REMARK  465  A    between atoms: _1549  and  _1552
REMARK  466  A    between atoms: _1552  and  _1553
REMARK  467  A    between atoms: _1559  and  _1560
REMARK  468  A    between atoms: _1560  and  _1561
REMARK  469  A    between atoms: _1566  and  _1567
REMARK  470  A    between atoms: _1567  and  _1568
REMARK  471  A    between atoms: _1567  and  _1570
REMARK  472  A    between atoms: _1570  and  _1571
REMARK  473  A    between atoms: _1570  and  _1572
REMARK  474  A    between atoms: _1580  and  _1581
REMARK  475  A    between atoms: _1581  and  _1582
REMARK  476  A    between atoms: _1581  and  _1584
REMARK  477  A    between atoms: _1584  and  _1585
REMARK  478  A    between atoms: _1585  and  _1586
REMARK  479  A    between atoms: _1586  and  _1587
REMARK  480  A    between atoms: _1587  and  _1588
REMARK  481  A    between atoms: _1602  and  _1603
REMARK  482  A    between atoms: _1603  and  _1604
REMARK  483  A    between atoms: _1603  and  _1606
REMARK  484  A    between atoms: _1612  and  _1613
REMARK  485  A    between atoms: _1613  and  _1614
REMARK  486  A    between atoms: _1613  and  _1616
REMARK  487  A    between atoms: _1616  and  _1617
REMARK  488  A    between atoms: _1632  and  _1633
REMARK  489  A    between atoms: _1633  and  _1634
REMARK  490  A    between atoms: _1633  and  _1636
REMARK  491  A    between atoms: _1636  and  _1637
REMARK  492  A    between atoms: _1637  and  _1638
REMARK  493  A    between atoms: _1638  and  _1639
REMARK  494  A    between atoms: _1649  and  _1650
REMARK  495  A    between atoms: _1650  and  _1651
REMARK  496  A    between atoms: _1650  and  _1653
REMARK  497  A    between atoms: _1653  and  _1654
REMARK  498  A    between atoms: _1654  and  _1655
REMARK  499  A    between atoms: _1664  and  _1665
REMARK  500  A    between atoms: _1665  and  _1666
REMARK  501  A    between atoms: _1665  and  _1668
REMARK  502  A    between atoms: _1674  and  _1675
REMARK  503  A    between atoms: _1675  and  _1676
REMARK  504  A    between atoms: _1675  and  _1678
REMARK  505  A    between atoms: _1678  and  _1679
REMARK  506  A    between atoms: _1679  and  _1680
REMARK  507  A    between atoms: _1679  and  _1681
REMARK  508  A    between atoms: _1693  and  _1694
REMARK  509  A    between atoms: _1694  and  _1695
REMARK  510  A    between atoms: _1694  and  _1697
REMARK  511  A    between atoms: _1697  and  _1698
REMARK  512  A    between atoms: _1698  and  _1699
REMARK  513  A    between atoms: _1710  and  _1711
REMARK  514  A    between atoms: _1711  and  _1712
REMARK  515  A    between atoms: _1711  and  _1714
REMARK  516  A    between atoms: _1720  and  _1721
REMARK  517  A    between atoms: _1721  and  _1722
REMARK  518  A    between atoms: _1727  and  _1728
REMARK  519  A    between atoms: _1728  and  _1729
REMARK  520  A    between atoms: _1728  and  _1731
REMARK  521  A    between atoms: _1737  and  _1738
REMARK  522  A    between atoms: _1738  and  _1739
REMARK  523  A    between atoms: _1738  and  _1741
REMARK  524  A    between atoms: _1741  and  _1742
REMARK  525  A    between atoms: _1749  and  _1750
REMARK  526  A    between atoms: _1750  and  _1751
REMARK  527  A    between atoms: _1750  and  _1753
REMARK  528  A    between atoms: _1753  and  _1754
REMARK  529  A    between atoms: _1753  and  _1755
REMARK  530  A    between atoms: _1754  and  _1756
REMARK  531  A    between atoms: _1768  and  _1769
REMARK  532  A    between atoms: _1769  and  _1772
REMARK  533  A    between atoms: _1772  and  _1773
REMARK  534  A    between atoms: _1791  and  _1793
REMARK  535  A    between atoms: _1792  and  _1794
REMARK  536  A    between atoms: _1814  and  _1815
REMARK  537  A    between atoms: _1814  and  _1817
REMARK  538  A    between atoms: _1817  and  _1818
REMARK  539  A    between atoms: _1817  and  _1819
REMARK  540  A    between atoms: _1818  and  _1820
REMARK  541  A    between atoms: _1833  and  _1834
REMARK  542  A    between atoms: _1834  and  _1835
REMARK  543  A    between atoms: _1840  and  _1841
REMARK  544  A    between atoms: _1841  and  _1842
REMARK  545  A    between atoms: _1841  and  _1844
REMARK  546  A    between atoms: _1844  and  _1845
REMARK  547  A    between atoms: _1845  and  _1846
REMARK  548  A    between atoms: _1857  and  _1858
REMARK  549  A    between atoms: _1858  and  _1859
REMARK  550  A    between atoms: _1858  and  _1861
REMARK  551  A    between atoms: _1861  and  _1862
REMARK  552  A    between atoms: _1877  and  _1878
REMARK  553  A    between atoms: _1878  and  _1879
REMARK  554  A    between atoms: _1884  and  _1885
REMARK  555  A    between atoms: _1885  and  _1886
REMARK  556  A    between atoms: _1885  and  _1888
REMARK  557  A    between atoms: _1888  and  _1889
REMARK  558  A    between atoms: _1888  and  _1890
REMARK  559  A    between atoms: _1900  and  _1901
REMARK  560  A    between atoms: _1901  and  _1902
REMARK  561  A    between atoms: _1907  and  _1908
REMARK  562  A    between atoms: _1908  and  _1909
REMARK  563  A    between atoms: _1908  and  _1911
REMARK  564  A    between atoms: _1911  and  _1912
REMARK  565  A    between atoms: _1927  and  _1928
REMARK  566  A    between atoms: _1928  and  _1929
REMARK  567  A    between atoms: _1928  and  _1931
REMARK  568  A    between atoms: _1931  and  _1932
REMARK  569  A    between atoms: _1937  and  _1938
REMARK  570  A    between atoms: _1948  and  _1949
REMARK  571  A    between atoms: _1949  and  _1950
REMARK  572  A    between atoms: _1949  and  _1952
REMARK  573  A    between atoms: _1952  and  _1953
REMARK  574  A    between atoms: _1959  and  _1960
REMARK  575  A    between atoms: _1960  and  _1961
REMARK  576  A    between atoms: _1960  and  _1963
REMARK  577  A    between atoms: _1969  and  _1970
REMARK  578  A    between atoms: _1970  and  _1971
REMARK  579  A    between atoms: _1970  and  _1973
REMARK  580  A    between atoms: _1973  and  _1974
REMARK  581  A    between atoms: _1979  and  _1980
REMARK  582  A    between atoms: _1990  and  _1991
REMARK  583  A    between atoms: _1991  and  _1992
REMARK  584  A    between atoms: _1991  and  _1994
REMARK  585  A    between atoms: _1994  and  _1995
REMARK  586  A    between atoms: _1995  and  _1996
REMARK  587  A    between atoms: _1995  and  _1997
REMARK  588  A    between atoms: _2009  and  _2010
REMARK  589  A    between atoms: _2010  and  _2011
REMARK  590  A    between atoms: _2010  and  _2013
REMARK  591  A    between atoms: _2013  and  _2014
REMARK  592  A    between atoms: _2013  and  _2015
REMARK  593  A    between atoms: _2025  and  _2026
REMARK  594  A    between atoms: _2026  and  _2027
REMARK  595  A    between atoms: _2026  and  _2029
REMARK  596  A    between atoms: _2035  and  _2036
REMARK  597  A    between atoms: _2036  and  _2037
REMARK  598  A    between atoms: _2036  and  _2039
REMARK  599  A    between atoms: _2039  and  _2040
REMARK  600  A    between atoms: _2040  and  _2041
REMARK  601  A    between atoms: _2050  and  _2051
REMARK  602  A    between atoms: _2051  and  _2052
REMARK  603  A    between atoms: _2051  and  _2054
REMARK  604  A    between atoms: _2054  and  _2055
REMARK  605  A    between atoms: _2055  and  _2056
REMARK  606  A    between atoms: _2056  and  _2057
REMARK  607  A    between atoms: _2057  and  _2058
REMARK  608  A    between atoms: _2072  and  _2073
REMARK  609  A    between atoms: _2073  and  _2074
REMARK  610  A    between atoms: _2073  and  _2076
REMARK  611  A    between atoms: _2076  and  _2077
REMARK  612  A    between atoms: _2076  and  _2078
REMARK  613  A    between atoms: _2088  and  _2089
REMARK  614  A    between atoms: _2089  and  _2090
REMARK  615  A    between atoms: _2089  and  _2092
REMARK  616  A    between atoms: _2092  and  _2093
REMARK  617  A    between atoms: _2092  and  _2094
REMARK  618  A    between atoms: _2102  and  _2103
REMARK  619  A    between atoms: _2103  and  _2104
REMARK  620  A    between atoms: _2103  and  _2106
REMARK  621  A    between atoms: _2106  and  _2107
REMARK  622  A    between atoms: _2106  and  _2108
REMARK  623  A    between atoms: _2118  and  _2119
REMARK  624  A    between atoms: _2119  and  _2120
REMARK  625  A    between atoms: _2119  and  _2122
REMARK  626  A    between atoms: _2122  and  _2123
REMARK  627  A    between atoms: _2122  and  _2124
REMARK  628  A    between atoms: _2123  and  _2125
REMARK  629  A    between atoms: _2137  and  _2138
REMARK  630  A    between atoms: _2138  and  _2139
REMARK  631  A    between atoms: _2138  and  _2141
REMARK  632  A    between atoms: _2141  and  _2142
REMARK  633  A    between atoms: _2141  and  _2143
REMARK  634  A    between atoms: _2151  and  _2152
REMARK  635  A    between atoms: _2152  and  _2153
REMARK  636  A    between atoms: _2152  and  _2155
REMARK  637  A    between atoms: _2155  and  _2156
REMARK  638  A    between atoms: _2156  and  _2157
REMARK  639  A    between atoms: _2157  and  _2158
REMARK  640  A    between atoms: _2158  and  _2159
REMARK  641  A    between atoms: _2173  and  _2174
REMARK  642  A    between atoms: _2174  and  _2175
REMARK  643  A    between atoms: _2174  and  _2177
REMARK  644  A    between atoms: _2177  and  _2178
REMARK  645  A    between atoms: _2190  and  _2191
REMARK  646  A    between atoms: _2191  and  _2192
REMARK  647  A    between atoms: _2191  and  _2194
REMARK  648  A    between atoms: _2194  and  _2195
REMARK  649  A    between atoms: _2204  and  _2205
REMARK  650  A    between atoms: _2205  and  _2206
REMARK  651  A    between atoms: _2205  and  _2208
REMARK  652  A    between atoms: _2208  and  _2209
REMARK  653  A    between atoms: _2216  and  _2217
REMARK  654  A    between atoms: _2217  and  _2218
REMARK  655  A    between atoms: _2217  and  _2220
REMARK  656  A    between atoms: _2220  and  _2221
REMARK  657  A    between atoms: _2228  and  _2229
REMARK  658  A    between atoms: _2229  and  _2230
REMARK  659  A    between atoms: _2229  and  _2232
REMARK  660  A    between atoms: _2232  and  _2233
REMARK  661  A    between atoms: _2233  and  _2234
REMARK  662  A    between atoms: _2243  and  _2244
REMARK  663  A    between atoms: _2244  and  _2245
REMARK  664  A    between atoms: _2244  and  _2247
REMARK  665  A    between atoms: _2247  and  _2248
REMARK  666  A    between atoms: _2248  and  _2249
REMARK  667  A    between atoms: _2260  and  _2261
REMARK  668  A    between atoms: _2261  and  _2262
REMARK  669  A    between atoms: _2261  and  _2264
REMARK  670  A    between atoms: _2264  and  _2265
REMARK  671  A    between atoms: _2270  and  _2271
REMARK  672  A    between atoms: _2281  and  _2282
REMARK  673  A    between atoms: _2282  and  _2283
REMARK  674  A    between atoms: _2282  and  _2285
REMARK  675  A    between atoms: _2291  and  _2292
REMARK  676  A    between atoms: _2292  and  _2293
REMARK  677  A    between atoms: _2292  and  _2295
REMARK  678  A    between atoms: _2295  and  _2296
REMARK  679  A    between atoms: _2315  and  _2316
REMARK  680  A    between atoms: _2316  and  _2317
REMARK  681  A    between atoms: _2316  and  _2319
REMARK  682  A    between atoms: _2319  and  _2320
REMARK  683  A    between atoms: _2320  and  _2321
REMARK  684  A    between atoms: _2330  and  _2331
REMARK  685  A    between atoms: _2331  and  _2332
REMARK  686  A    between atoms: _2331  and  _2334
REMARK  687  A    between atoms: _2334  and  _2335
REMARK  688  A    between atoms: _2341  and  _2342
REMARK  689  A    between atoms: _2342  and  _2343
REMARK  690  A    between atoms: _2342  and  _2345
REMARK  691  A    between atoms: _2345  and  _2346
REMARK  692  A    between atoms: _2352  and  _2353
REMARK  693  A    between atoms: _2353  and  _2354
REMARK  694  A    between atoms: _2353  and  _2356
REMARK  695  A    between atoms: _2362  and  _2363
REMARK  696  A    between atoms: _2363  and  _2364
REMARK  697  A    between atoms: _2369  and  _2370
REMARK  698  A    between atoms: _2370  and  _2371
REMARK  699  A    between atoms: _2376  and  _2377
REMARK  700  A    between atoms: _2377  and  _2378
REMARK  701  A    between atoms: _2377  and  _2380
REMARK  702  A    between atoms: _2380  and  _2381
REMARK  703  A    between atoms: _2387  and  _2388
REMARK  704  A    between atoms: _2388  and  _2389
REMARK  705  A    between atoms: _2388  and  _2391
REMARK  706  A    between atoms: _2391  and  _2392
REMARK  707  A    between atoms: _2407  and  _2408
REMARK  708  A    between atoms: _2408  and  _2409
REMARK  709  A    between atoms: _2408  and  _2411
REMARK  710  A    between atoms: _2411  and  _2412
REMARK  711  A    between atoms: _2411  and  _2413
REMARK  712  A    between atoms: _2421  and  _2422
REMARK  713  A    between atoms: _2422  and  _2423
REMARK  714  A    between atoms: _2422  and  _2425
REMARK  715  A    between atoms: _2425  and  _2426
REMARK  716  A    between atoms: _2425  and  _2427
REMARK  717  A    between atoms: _2437  and  _2438
REMARK  718  A    between atoms: _2438  and  _2439
REMARK  719  A    between atoms: _2438  and  _2441
REMARK  720  A    between atoms: _2441  and  _2442
REMARK  721  A    between atoms: _2442  and  _2443
REMARK  722  A    between atoms: _2443  and  _2444
REMARK  723  A    between atoms: _2461  and  _2462
REMARK  724  A    between atoms: _2462  and  _2463
REMARK  725  A    between atoms: _2462  and  _2465
REMARK  726  A    between atoms: _2465  and  _2466
REMARK  727  A    between atoms: _2465  and  _2467
REMARK  728  A    between atoms: _2475  and  _2476
REMARK  729  A    between atoms: _2476  and  _2477
REMARK  730  A    between atoms: _2476  and  _2479
REMARK  731  A    between atoms: _2479  and  _2480
REMARK  732  A    between atoms: _2487  and  _2488
REMARK  733  A    between atoms: _2488  and  _2489
REMARK  734  A    between atoms: _2488  and  _2491
REMARK  735  A    between atoms: _2491  and  _2492
REMARK  736  A    between atoms: _2491  and  _2493
REMARK  737  A    between atoms: _2501  and  _2502
REMARK  738  A    between atoms: _2502  and  _2503
REMARK  739  A    between atoms: _2508  and  _2509
REMARK  740  A    between atoms: _2509  and  _2510
REMARK  741  A    between atoms: _2509  and  _2512
REMARK  742  A    between atoms: _2512  and  _2513
REMARK  743  A    between atoms: _2513  and  _2514
REMARK  744  A    between atoms: _2524  and  _2525
REMARK  745  A    between atoms: _2537  and  _2538
REMARK  746  A    between atoms: _2538  and  _2539
REMARK  747  A    between atoms: _2538  and  _2541
REMARK  748  A    between atoms: _2541  and  _2542
REMARK  749  A    between atoms: _2542  and  _2543
REMARK  750  A    between atoms: _2543  and  _2544
REMARK  751  A    between atoms: _2554  and  _2555
REMARK  752  A    between atoms: _2555  and  _2556
REMARK  753  A    between atoms: _2561  and  _2562
REMARK  754  A    between atoms: _2562  and  _2563
REMARK  755  A    between atoms: _2562  and  _2565
REMARK  756  A    between atoms: _2565  and  _2566
REMARK  757  A    between atoms: _2566  and  _2567
REMARK  758  A    between atoms: _2567  and  _2568
REMARK  759  A    between atoms: _2585  and  _2586
REMARK  760  A    between atoms: _2586  and  _2587
REMARK  761  A    between atoms: _2592  and  _2593
REMARK  762  A    between atoms: _2593  and  _2594
REMARK  763  A    between atoms: _2593  and  _2596
REMARK  764  A    between atoms: _2596  and  _2597
REMARK  765  A    between atoms: _2596  and  _2598
REMARK  766  A    between atoms: _2606  and  _2607
REMARK  767  A    between atoms: _2607  and  _2608
REMARK  768  A    between atoms: _2607  and  _2610
REMARK  769  A    between atoms: _2610  and  _2611
REMARK  770  A    between atoms: _2611  and  _2612
REMARK  771  A    between atoms: _2612  and  _2613
REMARK  772  A    between atoms: _2613  and  _2614
REMARK  773  A    between atoms: _2628  and  _2629
REMARK  774  A    between atoms: _2629  and  _2630
REMARK  775  A    between atoms: _2629  and  _2632
REMARK  776  A    between atoms: _2632  and  _2633
REMARK  777  A    between atoms: _2632  and  _2634
REMARK  778  A    between atoms: _2644  and  _2645
REMARK  779  A    between atoms: _2645  and  _2646
REMARK  780  A    between atoms: _2645  and  _2648
REMARK  781  A    between atoms: _2648  and  _2649
REMARK  782  A    between atoms: _2648  and  _2650
REMARK  783  A    between atoms: _2649  and  _2651
REMARK  784  A    between atoms: _2663  and  _2664
REMARK  785  A    between atoms: _2664  and  _2665
REMARK  786  A    between atoms: _2664  and  _2667
REMARK  787  A    between atoms: _2667  and  _2668
REMARK  788  A    between atoms: _2668  and  _2669
REMARK  789  A    between atoms: _2668  and  _2670
REMARK  790  A    between atoms: _2682  and  _2683
REMARK  791  A    between atoms: _2683  and  _2684
REMARK  792  A    between atoms: _2683  and  _2686
REMARK  793  A    between atoms: _2686  and  _2687
REMARK  794  A    between atoms: _2699  and  _2700
REMARK  795  A    between atoms: _2700  and  _2701
REMARK  796  A    between atoms: _2700  and  _2703
REMARK  797  A    between atoms: _2703  and  _2704
REMARK  798  A    between atoms: _2704  and  _2705
REMARK  799  A    between atoms: _2704  and  _2706
REMARK  800  A    between atoms: _2718  and  _2719
REMARK  801  A    between atoms: _2719  and  _2720
REMARK  802  A    between atoms: _2719  and  _2722
REMARK  803  A    between atoms: _2722  and  _2723
REMARK  804  A    between atoms: _2723  and  _2724
REMARK  805  A    between atoms: _2724  and  _2725
REMARK  806  A    between atoms: _2725  and  _2726
REMARK  807  A    between atoms: _2740  and  _2741
REMARK  808  A    between atoms: _2741  and  _2742
REMARK  809  A    between atoms: _2741  and  _2744
REMARK  810  A    between atoms: _2744  and  _2745
REMARK  811  A    between atoms: _2745  and  _2746
REMARK  812  A    between atoms: _2755  and  _2756
REMARK  813  A    between atoms: _2756  and  _2757
REMARK  814  A    between atoms: _2756  and  _2759
REMARK  815  A    between atoms: _2759  and  _2760
REMARK  816  A    between atoms: _2767  and  _2768
REMARK  817  A    between atoms: _2768  and  _2769
REMARK  818  A    between atoms: _2768  and  _2771
REMARK  819  A    between atoms: _2771  and  _2772
REMARK  820  A    between atoms: _2772  and  _2773
REMARK  821  A    between atoms: _2784  and  _2785
REMARK  822  A    between atoms: _2785  and  _2786
REMARK  823  A    between atoms: _2785  and  _2788
REMARK  824  A    between atoms: _2788  and  _2789
REMARK  825  A    between atoms: _2788  and  _2790
REMARK  826  A    between atoms: _2798  and  _2799
REMARK  827  A    between atoms: _2799  and  _2800
REMARK  828  A    between atoms: _2799  and  _2802
REMARK  829  A    between atoms: _2802  and  _2803
REMARK  830  A    between atoms: _2803  and  _2804
REMARK  831  A    between atoms: _2813  and  _2814
REMARK  832  A    between atoms: _2814  and  _2815
REMARK  833  A    between atoms: _2814  and  _2817
REMARK  834  A    between atoms: _2817  and  _2818
REMARK  835  A    between atoms: _2823  and  _2824
REMARK  836  A    between atoms: _2834  and  _2835
REMARK  837  A    between atoms: _2835  and  _2838
REMARK  838  A    between atoms: _2838  and  _2839
REMARK  839  A    between atoms: _2839  and  _2840
REMARK  840  A    between atoms: _2839  and  _2841
REMARK  841  A    between atoms: _2884  and  _2885
REMARK  842  A    between atoms: _2884  and  _2887
REMARK  843  A    between atoms: _2887  and  _2888
REMARK  844  A    between atoms: _2888  and  _2889
REMARK  845  A    between atoms: _2899  and  _2900
REMARK  846  A    between atoms: _2900  and  _2901
REMARK  847  A    between atoms: _2900  and  _2903
REMARK  848  A    between atoms: _2903  and  _2904
REMARK  849  A    between atoms: _2904  and  _2905
REMARK  850  A    between atoms: _2905  and  _2906
REMARK  851  A    between atoms: _2923  and  _2924
REMARK  852  A    between atoms: _2924  and  _2925
REMARK  853  A    between atoms: _2924  and  _2927
REMARK  854  A    between atoms: _2927  and  _2928
REMARK  855  A    between atoms: _2928  and  _2929
REMARK  856  A    between atoms: _2929  and  _2930
REMARK  857  A    between atoms: _2947  and  _2948
REMARK  858  A    between atoms: _2948  and  _2949
REMARK  859  A    between atoms: _2948  and  _2951
REMARK  860  A    between atoms: _2951  and  _2952
REMARK  861  A    between atoms: _2951  and  _2953
REMARK  862  A    between atoms: _2952  and  _2954
REMARK  863  A    between atoms: _2966  and  _2967
REMARK  864  A    between atoms: _2967  and  _2968
REMARK  865  A    between atoms: _2967  and  _2970
REMARK  866  A    between atoms: _2970  and  _2971
REMARK  867  A    between atoms: _2971  and  _2972
REMARK  868  A    between atoms: _2972  and  _2973
REMARK  869  A    between atoms: _2973  and  _2974
REMARK  870  A    between atoms: _2988  and  _2989
REMARK  871  A    between atoms: _2989  and  _2990
REMARK  872  A    between atoms: _2989  and  _2992
REMARK  873  A    between atoms: _2992  and  _2993
REMARK  874  A    between atoms: _2993  and  _2994
REMARK  875  A    between atoms: _3003  and  _3004
REMARK  876  A    between atoms: _3004  and  _3005
REMARK  877  A    between atoms: _3004  and  _3007
REMARK  878  A    between atoms: _3007  and  _3008
REMARK  879  A    between atoms: _3007  and  _3009
REMARK  880  A    between atoms: _3008  and  _3010
REMARK  881  A    between atoms: _3022  and  _3023
REMARK  882  A    between atoms: _3023  and  _3024
REMARK  883  A    between atoms: _3023  and  _3026
REMARK  884  A    between atoms: _3026  and  _3027
REMARK  885  A    between atoms: _3026  and  _3028
REMARK  886  A    between atoms: _3038  and  _3039
REMARK  887  A    between atoms: _3039  and  _3040
REMARK  888  A    between atoms: _3039  and  _3042
REMARK  889  A    between atoms: _3042  and  _3043
REMARK  890  A    between atoms: _3043  and  _3044
REMARK  891  A    between atoms: _3044  and  _3045
REMARK  892  A    between atoms: _3045  and  _3046
REMARK  893  A    between atoms: _3060  and  _3061
REMARK  894  A    between atoms: _3061  and  _3062
REMARK  895  A    between atoms: _3061  and  _3064
REMARK  896  A    between atoms: _3064  and  _3065
REMARK  897  A    between atoms: _3065  and  _3066
REMARK  898  A    between atoms: _3066  and  _3067
REMARK  899  A    between atoms: _3067  and  _3068
REMARK  900  A    between atoms: _3082  and  _3083
REMARK  901  A    between atoms: _3083  and  _3084
REMARK  902  A    between atoms: _3083  and  _3086
REMARK  903  A    between atoms: _3086  and  _3087
REMARK  904  A    between atoms: _3099  and  _3100
REMARK  905  A    between atoms: _3100  and  _3101
REMARK  906  A    between atoms: _3100  and  _3103
REMARK  907  A    between atoms: _3103  and  _3104
REMARK  908  A    between atoms: _3110  and  _3111
REMARK  909  A    between atoms: _3111  and  _3112
REMARK  910  A    between atoms: _3111  and  _3114
REMARK  911  A    between atoms: _3114  and  _3115
REMARK  912  A    between atoms: _3115  and  _3116
REMARK  913  A    between atoms: _3127  and  _3128
REMARK  914  A    between atoms: _3128  and  _3129
REMARK  915  A    between atoms: _3128  and  _3131
REMARK  916  A    between atoms: _3131  and  _3132
REMARK  917  A    between atoms: _3147  and  _3148
REMARK  918  A    between atoms: _3148  and  _3149
REMARK  919  A    between atoms: _3148  and  _3151
REMARK  920  A    between atoms: _3151  and  _3152
REMARK  921  A    between atoms: _3151  and  _3153
REMARK  922  A    between atoms: _3152  and  _3154
REMARK  923  A    between atoms: _3166  and  _3167
REMARK  924  A    between atoms: _3167  and  _3168
REMARK  925  A    between atoms: _3173  and  _3174
REMARK  926  A    between atoms: _3174  and  _3175
REMARK  927  A    between atoms: _3174  and  _3177
REMARK  928  A    between atoms: _3177  and  _3178
REMARK  929  A    between atoms: _3183  and  _3184
REMARK  930  A    between atoms: _3195  and  _3196
REMARK  931  A    between atoms: _3208  and  _3209
REMARK  932  A    between atoms: _3209  and  _3210
REMARK  933  A    between atoms: _3209  and  _3212
REMARK  934  A    between atoms: _3212  and  _3213
REMARK  935  A    between atoms: _3212  and  _3214
REMARK  936  A    between atoms: _3213  and  _3215
REMARK  937  A    between atoms: _3227  and  _3228
REMARK  938  A    between atoms: _3228  and  _3229
REMARK  939  A    between atoms: _3228  and  _3231
REMARK  940  A    between atoms: _3231  and  _3232
REMARK  941  A    between atoms: _3231  and  _3233
REMARK  942  A    between atoms: _3241  and  _3242
REMARK  943  A    between atoms: _3242  and  _3243
REMARK  944  A    between atoms: _3242  and  _3245
REMARK  945  A    between atoms: _3245  and  _3246
REMARK  946  A    between atoms: _3246  and  _3247
REMARK  947  A    between atoms: _3246  and  _3248
REMARK  948  A    between atoms: _3260  and  _3261
REMARK  949  A    between atoms: _3261  and  _3262
REMARK  950  A    between atoms: _3261  and  _3264
REMARK  951  A    between atoms: _3264  and  _3265
REMARK  952  A    between atoms: _3280  and  _3281
REMARK  953  A    between atoms: _3281  and  _3282
REMARK  954  A    between atoms: _3281  and  _3284
REMARK  955  A    between atoms: _3284  and  _3285
REMARK  956  A    between atoms: _3284  and  _3286
REMARK  957  A    between atoms: _3296  and  _3297
REMARK  958  A    between atoms: _3297  and  _3298
REMARK  959  A    between atoms: _3297  and  _3300
REMARK  960  A    between atoms: _3300  and  _3301
REMARK  961  A    between atoms: _3301  and  _3302
REMARK                            x       y       z     vdW  Elec       q    Type
REMARK                         _______ _______ _______ _____ _____    ______ ____
ROOT
ATOM      1  N   UNL     1      -8.351  20.016  40.333  0.00  0.00    +0.000 NA
ENDROOT
TORSDOF 0
REMARK  Name = /Users/mlugowska/PhD/ML_residence_time_prediction/protein_files/5J20_protein.pdb
REMARK  961 active torsions:
REMARK  status: ('A' for Active; 'I' for Inactive)
REMARK    1  A    between atoms: _2  and  _3
REMARK    2  A    between atoms: _2  and  _5
REMARK    3  A    between atoms: _10  and  _11
REMARK    4  A    between atoms: _11  and  _12
REMARK    5  A    between atoms: _11  and  _14
REMARK    6  A    between atoms: _14  and  _15
REMARK    7  A    between atoms: _14  and  _16
REMARK    8  A    between atoms: _26  and  _27
REMARK    9  A    between atoms: _27  and  _28
REMARK   10  A    between atoms: _27  and  _30
REMARK   11  A    between atoms: _30  and  _31
REMARK   12  A    between atoms: _31  and  _32
REMARK   13  A    between atoms: _41  and  _42
REMARK   14  A    between atoms: _42  and  _43
REMARK   15  A    between atoms: _42  and  _45
REMARK   16  A    between atoms: _45  and  _46
REMARK   17  A    between atoms: _45  and  _47
REMARK   18  A    between atoms: _55  and  _56
REMARK   19  A    between atoms: _56  and  _57
REMARK   20  A    between atoms: _56  and  _59
REMARK   21  A    between atoms: _59  and  _60
REMARK   22  A    between atoms: _75  and  _76
REMARK   23  A    between atoms: _76  and  _77
REMARK   24  A    between atoms: _76  and  _79
REMARK   25  A    between atoms: _85  and  _86
REMARK   26  A    between atoms: _86  and  _87
REMARK   27  A    between atoms: _86  and  _89
REMARK   28  A    between atoms: _89  and  _90
REMARK   29  A    between atoms: _105  and  _106
REMARK   30  A    between atoms: _106  and  _107
REMARK   31  A    between atoms: _106  and  _109
REMARK   32  A    between atoms: _109  and  _110
REMARK   33  A    between atoms: _110  and  _111
REMARK   34  A    between atoms: _122  and  _123
REMARK   35  A    between atoms: _123  and  _124
REMARK   36  A    between atoms: _123  and  _126
REMARK   37  A    between atoms: _132  and  _133
REMARK   38  A    between atoms: _133  and  _134
REMARK   39  A    between atoms: _133  and  _136
REMARK   40  A    between atoms: _136  and  _137
REMARK   41  A    between atoms: _137  and  _138
REMARK   42  A    between atoms: _147  and  _148
REMARK   43  A    between atoms: _148  and  _149
REMARK   44  A    between atoms: _148  and  _151
REMARK   45  A    between atoms: _151  and  _152
REMARK   46  A    between atoms: _151  and  _153
REMARK   47  A    between atoms: _152  and  _154
REMARK   48  A    between atoms: _166  and  _167
REMARK   49  A    between atoms: _167  and  _168
REMARK   50  A    between atoms: _167  and  _170
REMARK   51  A    between atoms: _176  and  _177
REMARK   52  A    between atoms: _177  and  _178
REMARK   53  A    between atoms: _177  and  _180
REMARK   54  A    between atoms: _180  and  _181
REMARK   55  A    between atoms: _181  and  _182
REMARK   56  A    between atoms: _193  and  _194
REMARK   57  A    between atoms: _194  and  _195
REMARK   58  A    between atoms: _194  and  _197
REMARK   59  A    between atoms: _197  and  _198
REMARK   60  A    between atoms: _198  and  _199
REMARK   61  A    between atoms: _198  and  _200
REMARK   62  A    between atoms: _212  and  _213
REMARK   63  A    between atoms: _213  and  _214
REMARK   64  A    between atoms: _213  and  _216
REMARK   65  A    between atoms: _216  and  _217
REMARK   66  A    between atoms: _217  and  _218
REMARK   67  A    between atoms: _218  and  _219
REMARK   68  A    between atoms: _229  and  _230
REMARK   69  A    between atoms: _230  and  _231
REMARK   70  A    between atoms: _230  and  _233
REMARK   71  A    between atoms: _233  and  _234
REMARK   72  A    between atoms: _240  and  _241
REMARK   73  A    between atoms: _241  and  _242
REMARK   74  A    between atoms: _241  and  _244
REMARK   75  A    between atoms: _244  and  _245
REMARK   76  A    between atoms: _245  and  _246
REMARK   77  A    between atoms: _245  and  _247
REMARK   78  A    between atoms: _259  and  _260
REMARK   79  A    between atoms: _260  and  _261
REMARK   80  A    between atoms: _260  and  _263
REMARK   81  A    between atoms: _263  and  _264
REMARK   82  A    between atoms: _263  and  _265
REMARK   83  A    between atoms: _264  and  _266
REMARK   84  A    between atoms: _278  and  _279
REMARK   85  A    between atoms: _279  and  _280
REMARK   86  A    between atoms: _279  and  _282
REMARK   87  A    between atoms: _282  and  _283
REMARK   88  A    between atoms: _282  and  _284
REMARK   89  A    between atoms: _283  and  _285
REMARK   90  A    between atoms: _297  and  _298
REMARK   91  A    between atoms: _298  and  _299
REMARK   92  A    between atoms: _298  and  _301
REMARK   93  A    between atoms: _301  and  _302
REMARK   94  A    between atoms: _311  and  _312
REMARK   95  A    between atoms: _312  and  _313
REMARK   96  A    between atoms: _312  and  _315
REMARK   97  A    between atoms: _315  and  _316
REMARK   98  A    between atoms: _315  and  _317
REMARK   99  A    between atoms: _325  and  _326
REMARK  100  A    between atoms: _326  and  _327
REMARK  101  A    between atoms: _326  and  _329
REMARK  102  A    between atoms: _329  and  _330
REMARK  103  A    between atoms: _345  and  _346
REMARK  104  A    between atoms: _346  and  _347
REMARK  105  A    between atoms: _346  and  _349
REMARK  106  A    between atoms: _349  and  _350
REMARK  107  A    between atoms: _355  and  _356
REMARK  108  A    between atoms: _366  and  _367
REMARK  109  A    between atoms: _367  and  _368
REMARK  110  A    between atoms: _367  and  _370
REMARK  111  A    between atoms: _370  and  _371
REMARK  112  A    between atoms: _377  and  _378
REMARK  113  A    between atoms: _378  and  _379
REMARK  114  A    between atoms: _378  and  _381
REMARK  115  A    between atoms: _381  and  _382
REMARK  116  A    between atoms: _391  and  _392
REMARK  117  A    between atoms: _392  and  _393
REMARK  118  A    between atoms: _392  and  _395
REMARK  119  A    between atoms: _395  and  _396
REMARK  120  A    between atoms: _396  and  _397
REMARK  121  A    between atoms: _397  and  _398
REMARK  122  A    between atoms: _398  and  _399
REMARK  123  A    between atoms: _413  and  _414
REMARK  124  A    between atoms: _414  and  _415
REMARK  125  A    between atoms: _414  and  _417
REMARK  126  A    between atoms: _417  and  _418
REMARK  127  A    between atoms: _418  and  _419
REMARK  128  A    between atoms: _428  and  _429
REMARK  129  A    between atoms: _429  and  _430
REMARK  130  A    between atoms: _429  and  _432
REMARK  131  A    between atoms: _432  and  _433
REMARK  132  A    between atoms: _432  and  _434
REMARK  133  A    between atoms: _433  and  _435
REMARK  134  A    between atoms: _447  and  _448
REMARK  135  A    between atoms: _448  and  _449
REMARK  136  A    between atoms: _448  and  _451
REMARK  137  A    between atoms: _451  and  _452
REMARK  138  A    between atoms: _467  and  _468
REMARK  139  A    between atoms: _468  and  _469
REMARK  140  A    between atoms: _468  and  _471
REMARK  141  A    between atoms: _471  and  _472
REMARK  142  A    between atoms: _472  and  _473
REMARK  143  A    between atoms: _472  and  _474
REMARK  144  A    between atoms: _486  and  _487
REMARK  145  A    between atoms: _487  and  _488
REMARK  146  A    between atoms: _487  and  _490
REMARK  147  A    between atoms: _490  and  _491
REMARK  148  A    between atoms: _491  and  _492
REMARK  149  A    between atoms: _492  and  _493
REMARK  150  A    between atoms: _510  and  _511
REMARK  151  A    between atoms: _511  and  _512
REMARK  152  A    between atoms: _511  and  _514
REMARK  153  A    between atoms: _514  and  _515
REMARK  154  A    between atoms: _515  and  _516
REMARK  155  A    between atoms: _525  and  _526
REMARK  156  A    between atoms: _526  and  _527
REMARK  157  A    between atoms: _526  and  _529
REMARK  158  A    between atoms: _529  and  _530
REMARK  159  A    between atoms: _530  and  _531
REMARK  160  A    between atoms: _530  and  _532
REMARK  161  A    between atoms: _544  and  _545
REMARK  162  A    between atoms: _545  and  _546
REMARK  163  A    between atoms: _545  and  _548
REMARK  164  A    between atoms: _548  and  _549
REMARK  165  A    between atoms: _548  and  _550
REMARK  166  A    between atoms: _549  and  _551
REMARK  167  A    between atoms: _563  and  _564
REMARK  168  A    between atoms: _564  and  _565
REMARK  169  A    between atoms: _564  and  _567
REMARK  170  A    between atoms: _567  and  _568
REMARK  171  A    between atoms: _574  and  _575
REMARK  172  A    between atoms: _575  and  _576
REMARK  173  A    between atoms: _575  and  _578
REMARK  174  A    between atoms: _578  and  _579
REMARK  175  A    between atoms: _588  and  _589
REMARK  176  A    between atoms: _589  and  _590
REMARK  177  A    between atoms: _589  and  _592
REMARK  178  A    between atoms: _592  and  _593
REMARK  179  A    between atoms: _599  and  _600
REMARK  180  A    between atoms: _600  and  _601
REMARK  181  A    between atoms: _600  and  _603
REMARK  182  A    between atoms: _603  and  _604
REMARK  183  A    between atoms: _610  and  _611
REMARK  184  A    between atoms: _611  and  _612
REMARK  185  A    between atoms: _611  and  _614
REMARK  186  A    between atoms: _614  and  _615
REMARK  187  A    between atoms: _622  and  _623
REMARK  188  A    between atoms: _623  and  _624
REMARK  189  A    between atoms: _623  and  _626
REMARK  190  A    between atoms: _632  and  _633
REMARK  191  A    between atoms: _633  and  _634
REMARK  192  A    between atoms: _633  and  _636
REMARK  193  A    between atoms: _636  and  _637
REMARK  194  A    between atoms: _637  and  _638
REMARK  195  A    between atoms: _637  and  _639
REMARK  196  A    between atoms: _651  and  _652
REMARK  197  A    between atoms: _652  and  _653
REMARK  198  A    between atoms: _652  and  _655
REMARK  199  A    between atoms: _655  and  _656
REMARK  200  A    between atoms: _663  and  _664
REMARK  201  A    between atoms: _664  and  _665
REMARK  202  A    between atoms: _664  and  _667
REMARK  203  A    between atoms: _667  and  _668
REMARK  204  A    between atoms: _668  and  _669
REMARK  205  A    between atoms: _669  and  _670
REMARK  206  A    between atoms: _670  and  _671
REMARK  207  A    between atoms: _685  and  _686
REMARK  208  A    between atoms: _686  and  _687
REMARK  209  A    between atoms: _686  and  _689
REMARK  210  A    between atoms: _689  and  _690
REMARK  211  A    between atoms: _689  and  _691
REMARK  212  A    between atoms: _690  and  _692
REMARK  213  A    between atoms: _704  and  _705
REMARK  214  A    between atoms: _705  and  _706
REMARK  215  A    between atoms: _705  and  _708
REMARK  216  A    between atoms: _708  and  _709
REMARK  217  A    between atoms: _709  and  _710
REMARK  218  A    between atoms: _710  and  _711
REMARK  219  A    between atoms: _728  and  _729
REMARK  220  A    between atoms: _729  and  _730
REMARK  221  A    between atoms: _729  and  _732
REMARK  222  A    between atoms: _732  and  _733
REMARK  223  A    between atoms: _738  and  _739
REMARK  224  A    between atoms: _749  and  _750
REMARK  225  A    between atoms: _750  and  _751
REMARK  226  A    between atoms: _750  and  _753
REMARK  227  A    between atoms: _753  and  _754
REMARK  228  A    between atoms: _754  and  _755
REMARK  229  A    between atoms: _764  and  _765
REMARK  230  A    between atoms: _765  and  _766
REMARK  231  A    between atoms: _765  and  _768
REMARK  232  A    between atoms: _772  and  _773
REMARK  233  A    between atoms: _773  and  _774
REMARK  234  A    between atoms: _773  and  _776
REMARK  235  A    between atoms: _776  and  _777
REMARK  236  A    between atoms: _777  and  _778
REMARK  237  A    between atoms: _777  and  _779
REMARK  238  A    between atoms: _791  and  _792
REMARK  239  A    between atoms: _792  and  _793
REMARK  240  A    between atoms: _792  and  _795
REMARK  241  A    between atoms: _795  and  _796
REMARK  242  A    between atoms: _795  and  _797
REMARK  243  A    between atoms: _805  and  _806
REMARK  244  A    between atoms: _806  and  _807
REMARK  245  A    between atoms: _806  and  _809
REMARK  246  A    between atoms: _809  and  _810
REMARK  247  A    between atoms: _818  and  _819
REMARK  248  A    between atoms: _831  and  _832
REMARK  249  A    between atoms: _832  and  _833
REMARK  250  A    between atoms: _832  and  _835
REMARK  251  A    between atoms: _835  and  _836
REMARK  252  A    between atoms: _842  and  _843
REMARK  253  A    between atoms: _843  and  _844
REMARK  254  A    between atoms: _843  and  _846
REMARK  255  A    between atoms: _846  and  _847
REMARK  256  A    between atoms: _847  and  _848
REMARK  257  A    between atoms: _848  and  _849
REMARK  258  A    between atoms: _849  and  _850
REMARK  259  A    between atoms: _864  and  _865
REMARK  260  A    between atoms: _865  and  _866
REMARK  261  A    between atoms: _865  and  _868
REMARK  262  A    between atoms: _868  and  _869
REMARK  263  A    between atoms: _869  and  _870
REMARK  264  A    between atoms: _869  and  _871
REMARK  265  A    between atoms: _883  and  _884
REMARK  266  A    between atoms: _884  and  _885
REMARK  267  A    between atoms: _884  and  _887
REMARK  268  A    between atoms: _887  and  _888
REMARK  269  A    between atoms: _895  and  _896
REMARK  270  A    between atoms: _896  and  _897
REMARK  271  A    between atoms: _896  and  _899
REMARK  272  A    between atoms: _899  and  _900
REMARK  273  A    between atoms: _906  and  _907
REMARK  274  A    between atoms: _907  and  _908
REMARK  275  A    between atoms: _913  and  _914
REMARK  276  A    between atoms: _914  and  _915
REMARK  277  A    between atoms: _914  and  _917
REMARK  278  A    between atoms: _917  and  _918
REMARK  279  A    between atoms: _918  and  _919
REMARK  280  A    between atoms: _919  and  _920
REMARK  281  A    between atoms: _920  and  _921
REMARK  282  A    between atoms: _935  and  _936
REMARK  283  A    between atoms: _936  and  _937
REMARK  284  A    between atoms: _936  and  _939
REMARK  285  A    between atoms: _939  and  _940
REMARK  286  A    between atoms: _940  and  _941
REMARK  287  A    between atoms: _950  and  _951
REMARK  288  A    between atoms: _951  and  _952
REMARK  289  A    between atoms: _951  and  _954
REMARK  290  A    between atoms: _954  and  _955
REMARK  291  A    between atoms: _955  and  _956
REMARK  292  A    between atoms: _955  and  _957
REMARK  293  A    between atoms: _969  and  _970
REMARK  294  A    between atoms: _970  and  _971
REMARK  295  A    between atoms: _970  and  _973
REMARK  296  A    between atoms: _973  and  _974
REMARK  297  A    between atoms: _986  and  _987
REMARK  298  A    between atoms: _987  and  _988
REMARK  299  A    between atoms: _987  and  _990
REMARK  300  A    between atoms: _990  and  _991
REMARK  301  A    between atoms: _990  and  _992
REMARK  302  A    between atoms: _991  and  _993
REMARK  303  A    between atoms: _1005  and  _1006
REMARK  304  A    between atoms: _1006  and  _1007
REMARK  305  A    between atoms: _1006  and  _1009
REMARK  306  A    between atoms: _1009  and  _1010
REMARK  307  A    between atoms: _1019  and  _1020
REMARK  308  A    between atoms: _1020  and  _1021
REMARK  309  A    between atoms: _1020  and  _1023
REMARK  310  A    between atoms: _1023  and  _1024
REMARK  311  A    between atoms: _1024  and  _1025
REMARK  312  A    between atoms: _1024  and  _1026
REMARK  313  A    between atoms: _1038  and  _1039
REMARK  314  A    between atoms: _1039  and  _1040
REMARK  315  A    between atoms: _1039  and  _1042
REMARK  316  A    between atoms: _1042  and  _1043
REMARK  317  A    between atoms: _1042  and  _1044
REMARK  318  A    between atoms: _1043  and  _1045
REMARK  319  A    between atoms: _1058  and  _1059
REMARK  320  A    between atoms: _1071  and  _1072
REMARK  321  A    between atoms: _1072  and  _1073
REMARK  322  A    between atoms: _1072  and  _1075
REMARK  323  A    between atoms: _1075  and  _1076
REMARK  324  A    between atoms: _1085  and  _1086
REMARK  325  A    between atoms: _1086  and  _1087
REMARK  326  A    between atoms: _1086  and  _1089
REMARK  327  A    between atoms: _1089  and  _1090
REMARK  328  A    between atoms: _1090  and  _1091
REMARK  329  A    between atoms: _1091  and  _1092
REMARK  330  A    between atoms: _1092  and  _1093
REMARK  331  A    between atoms: _1107  and  _1108
REMARK  332  A    between atoms: _1108  and  _1109
REMARK  333  A    between atoms: _1108  and  _1111
REMARK  334  A    between atoms: _1111  and  _1112
REMARK  335  A    between atoms: _1112  and  _1113
REMARK  336  A    between atoms: _1124  and  _1125
REMARK  337  A    between atoms: _1125  and  _1126
REMARK  338  A    between atoms: _1125  and  _1128
REMARK  339  A    between atoms: _1128  and  _1129
REMARK  340  A    between atoms: _1136  and  _1137
REMARK  341  A    between atoms: _1137  and  _1138
REMARK  342  A    between atoms: _1137  and  _1140
REMARK  343  A    between atoms: _1140  and  _1141
REMARK  344  A    between atoms: _1141  and  _1142
REMARK  345  A    between atoms: _1142  and  _1143
REMARK  346  A    between atoms: _1160  and  _1161
REMARK  347  A    between atoms: _1161  and  _1162
REMARK  348  A    between atoms: _1161  and  _1164
REMARK  349  A    between atoms: _1164  and  _1165
REMARK  350  A    between atoms: _1164  and  _1166
REMARK  351  A    between atoms: _1174  and  _1175
REMARK  352  A    between atoms: _1175  and  _1176
REMARK  353  A    between atoms: _1175  and  _1178
REMARK  354  A    between atoms: _1178  and  _1179
REMARK  355  A    between atoms: _1179  and  _1180
REMARK  356  A    between atoms: _1179  and  _1181
REMARK  357  A    between atoms: _1193  and  _1194
REMARK  358  A    between atoms: _1194  and  _1195
REMARK  359  A    between atoms: _1194  and  _1197
REMARK  360  A    between atoms: _1197  and  _1198
REMARK  361  A    between atoms: _1197  and  _1199
REMARK  362  A    between atoms: _1207  and  _1208
REMARK  363  A    between atoms: _1208  and  _1209
REMARK  364  A    between atoms: _1208  and  _1211
REMARK  365  A    between atoms: _1211  and  _1212
REMARK  366  A    between atoms: _1211  and  _1213
REMARK  367  A    between atoms: _1212  and  _1214
REMARK  368  A    between atoms: _1226  and  _1227
REMARK  369  A    between atoms: _1227  and  _1228
REMARK  370  A    between atoms: _1227  and  _1230
REMARK  371  A    between atoms: _1230  and  _1231
REMARK  372  A    between atoms: _1230  and  _1232
REMARK  373  A    between atoms: _1242  and  _1243
REMARK  374  A    between atoms: _1243  and  _1244
REMARK  375  A    between atoms: _1243  and  _1246
REMARK  376  A    between atoms: _1246  and  _1247
REMARK  377  A    between atoms: _1254  and  _1255
REMARK  378  A    between atoms: _1255  and  _1256
REMARK  379  A    between atoms: _1255  and  _1258
REMARK  380  A    between atoms: _1258  and  _1259
REMARK  381  A    between atoms: _1258  and  _1260
REMARK  382  A    between atoms: _1268  and  _1269
REMARK  383  A    between atoms: _1269  and  _1270
REMARK  384  A    between atoms: _1275  and  _1276
REMARK  385  A    between atoms: _1276  and  _1277
REMARK  386  A    between atoms: _1276  and  _1279
REMARK  387  A    between atoms: _1279  and  _1280
REMARK  388  A    between atoms: _1279  and  _1281
REMARK  389  A    between atoms: _1280  and  _1282
REMARK  390  A    between atoms: _1294  and  _1295
REMARK  391  A    between atoms: _1295  and  _1296
REMARK  392  A    between atoms: _1301  and  _1302
REMARK  393  A    between atoms: _1302  and  _1303
REMARK  394  A    between atoms: _1302  and  _1305
REMARK  395  A    between atoms: _1305  and  _1306
REMARK  396  A    between atoms: _1306  and  _1307
REMARK  397  A    between atoms: _1307  and  _1308
REMARK  398  A    between atoms: _1318  and  _1319
REMARK  399  A    between atoms: _1319  and  _1320
REMARK  400  A    between atoms: _1319  and  _1322
REMARK  401  A    between atoms: _1322  and  _1323
REMARK  402  A    between atoms: _1322  and  _1324
REMARK  403  A    between atoms: _1332  and  _1333
REMARK  404  A    between atoms: _1333  and  _1334
REMARK  405  A    between atoms: _1333  and  _1336
REMARK  406  A    between atoms: _1336  and  _1337
REMARK  407  A    between atoms: _1337  and  _1338
REMARK  408  A    between atoms: _1338  and  _1339
REMARK  409  A    between atoms: _1339  and  _1340
REMARK  410  A    between atoms: _1354  and  _1355
REMARK  411  A    between atoms: _1355  and  _1356
REMARK  412  A    between atoms: _1355  and  _1358
REMARK  413  A    between atoms: _1364  and  _1365
REMARK  414  A    between atoms: _1365  and  _1366
REMARK  415  A    between atoms: _1365  and  _1368
REMARK  416  A    between atoms: _1368  and  _1369
REMARK  417  A    between atoms: _1376  and  _1377
REMARK  418  A    between atoms: _1377  and  _1378
REMARK  419  A    between atoms: _1377  and  _1380
REMARK  420  A    between atoms: _1380  and  _1381
REMARK  421  A    between atoms: _1381  and  _1382
REMARK  422  A    between atoms: _1381  and  _1383
REMARK  423  A    between atoms: _1395  and  _1396
REMARK  424  A    between atoms: _1396  and  _1399
REMARK  425  A    between atoms: _1399  and  _1400
REMARK  426  A    between atoms: _1399  and  _1401
REMARK  427  A    between atoms: _1400  and  _1402
REMARK  428  A    between atoms: _1422  and  _1425
REMARK  429  A    between atoms: _1424  and  _1428
REMARK  430  A    between atoms: _1425  and  _1427
REMARK  431  A    between atoms: _1443  and  _1444
REMARK  432  A    between atoms: _1443  and  _1446
REMARK  433  A    between atoms: _1446  and  _1447
REMARK  434  A    between atoms: _1457  and  _1458
REMARK  435  A    between atoms: _1458  and  _1459
REMARK  436  A    between atoms: _1458  and  _1461
REMARK  437  A    between atoms: _1461  and  _1462
REMARK  438  A    between atoms: _1462  and  _1463
REMARK  439  A    between atoms: _1462  and  _1464
REMARK  440  A    between atoms: _1476  and  _1477
REMARK  441  A    between atoms: _1477  and  _1478
REMARK  442  A    between atoms: _1483  and  _1484
REMARK  443  A    between atoms: _1484  and  _1485
REMARK  444  A    between atoms: _1484  and  _1487
REMARK  445  A    between atoms: _1487  and  _1488
REMARK  446  A    between atoms: _1487  and  _1489
REMARK  447  A    between atoms: _1497  and  _1498
REMARK  448  A    between atoms: _1498  and  _1499
REMARK  449  A    between atoms: _1498  and  _1501
REMARK  450  A    between atoms: _1501  and  _1502
REMARK  451  A    between atoms: _1501  and  _1503
REMARK  452  A    between atoms: _1502  and  _1504
REMARK  453  A    between atoms: _1516  and  _1517
REMARK  454  A    between atoms: _1517  and  _1518
REMARK  455  A    between atoms: _1517  and  _1520
REMARK  456  A    between atoms: _1526  and  _1527
REMARK  457  A    between atoms: _1527  and  _1528
REMARK  458  A    between atoms: _1527  and  _1530
REMARK  459  A    between atoms: _1530  and  _1531
REMARK  460  A    between atoms: _1531  and  _1532
REMARK  461  A    between atoms: _1532  and  _1533
REMARK  462  A    between atoms: _1533  and  _1534
REMARK  463  A    between atoms: _1548  and  _1549
REMARK  464  A    between atoms: _1549  and  _1550
REMARK  465  A    between atoms: _1549  and  _1552
REMARK  466  A    between atoms: _1552  and  _1553
REMARK  467  A    between atoms: _1559  and  _1560
REMARK  468  A    between atoms: _1560  and  _1561
REMARK  469  A    between atoms: _1566  and  _1567
REMARK  470  A    between atoms: _1567  and  _1568
REMARK  471  A    between atoms: _1567  and  _1570
REMARK  472  A    between atoms: _1570  and  _1571
REMARK  473  A    between atoms: _1570  and  _1572
REMARK  474  A    between atoms: _1580  and  _1581
REMARK  475  A    between atoms: _1581  and  _1582
REMARK  476  A    between atoms: _1581  and  _1584
REMARK  477  A    between atoms: _1584  and  _1585
REMARK  478  A    between atoms: _1585  and  _1586
REMARK  479  A    between atoms: _1586  and  _1587
REMARK  480  A    between atoms: _1587  and  _1588
REMARK  481  A    between atoms: _1602  and  _1603
REMARK  482  A    between atoms: _1603  and  _1604
REMARK  483  A    between atoms: _1603  and  _1606
REMARK  484  A    between atoms: _1612  and  _1613
REMARK  485  A    between atoms: _1613  and  _1614
REMARK  486  A    between atoms: _1613  and  _1616
REMARK  487  A    between atoms: _1616  and  _1617
REMARK  488  A    between atoms: _1632  and  _1633
REMARK  489  A    between atoms: _1633  and  _1634
REMARK  490  A    between atoms: _1633  and  _1636
REMARK  491  A    between atoms: _1636  and  _1637
REMARK  492  A    between atoms: _1637  and  _1638
REMARK  493  A    between atoms: _1638  and  _1639
REMARK  494  A    between atoms: _1649  and  _1650
REMARK  495  A    between atoms: _1650  and  _1651
REMARK  496  A    between atoms: _1650  and  _1653
REMARK  497  A    between atoms: _1653  and  _1654
REMARK  498  A    between atoms: _1654  and  _1655
REMARK  499  A    between atoms: _1664  and  _1665
REMARK  500  A    between atoms: _1665  and  _1666
REMARK  501  A    between atoms: _1665  and  _1668
REMARK  502  A    between atoms: _1674  and  _1675
REMARK  503  A    between atoms: _1675  and  _1676
REMARK  504  A    between atoms: _1675  and  _1678
REMARK  505  A    between atoms: _1678  and  _1679
REMARK  506  A    between atoms: _1679  and  _1680
REMARK  507  A    between atoms: _1679  and  _1681
REMARK  508  A    between atoms: _1693  and  _1694
REMARK  509  A    between atoms: _1694  and  _1695
REMARK  510  A    between atoms: _1694  and  _1697
REMARK  511  A    between atoms: _1697  and  _1698
REMARK  512  A    between atoms: _1698  and  _1699
REMARK  513  A    between atoms: _1710  and  _1711
REMARK  514  A    between atoms: _1711  and  _1712
REMARK  515  A    between atoms: _1711  and  _1714
REMARK  516  A    between atoms: _1720  and  _1721
REMARK  517  A    between atoms: _1721  and  _1722
REMARK  518  A    between atoms: _1727  and  _1728
REMARK  519  A    between atoms: _1728  and  _1729
REMARK  520  A    between atoms: _1728  and  _1731
REMARK  521  A    between atoms: _1737  and  _1738
REMARK  522  A    between atoms: _1738  and  _1739
REMARK  523  A    between atoms: _1738  and  _1741
REMARK  524  A    between atoms: _1741  and  _1742
REMARK  525  A    between atoms: _1749  and  _1750
REMARK  526  A    between atoms: _1750  and  _1751
REMARK  527  A    between atoms: _1750  and  _1753
REMARK  528  A    between atoms: _1753  and  _1754
REMARK  529  A    between atoms: _1753  and  _1755
REMARK  530  A    between atoms: _1754  and  _1756
REMARK  531  A    between atoms: _1768  and  _1769
REMARK  532  A    between atoms: _1769  and  _1772
REMARK  533  A    between atoms: _1772  and  _1773
REMARK  534  A    between atoms: _1791  and  _1793
REMARK  535  A    between atoms: _1792  and  _1794
REMARK  536  A    between atoms: _1814  and  _1815
REMARK  537  A    between atoms: _1814  and  _1817
REMARK  538  A    between atoms: _1817  and  _1818
REMARK  539  A    between atoms: _1817  and  _1819
REMARK  540  A    between atoms: _1818  and  _1820
REMARK  541  A    between atoms: _1833  and  _1834
REMARK  542  A    between atoms: _1834  and  _1835
REMARK  543  A    between atoms: _1840  and  _1841
REMARK  544  A    between atoms: _1841  and  _1842
REMARK  545  A    between atoms: _1841  and  _1844
REMARK  546  A    between atoms: _1844  and  _1845
REMARK  547  A    between atoms: _1845  and  _1846
REMARK  548  A    between atoms: _1857  and  _1858
REMARK  549  A    between atoms: _1858  and  _1859
REMARK  550  A    between atoms: _1858  and  _1861
REMARK  551  A    between atoms: _1861  and  _1862
REMARK  552  A    between atoms: _1877  and  _1878
REMARK  553  A    between atoms: _1878  and  _1879
REMARK  554  A    between atoms: _1884  and  _1885
REMARK  555  A    between atoms: _1885  and  _1886
REMARK  556  A    between atoms: _1885  and  _1888
REMARK  557  A    between atoms: _1888  and  _1889
REMARK  558  A    between atoms: _1888  and  _1890
REMARK  559  A    between atoms: _1900  and  _1901
REMARK  560  A    between atoms: _1901  and  _1902
REMARK  561  A    between atoms: _1907  and  _1908
REMARK  562  A    between atoms: _1908  and  _1909
REMARK  563  A    between atoms: _1908  and  _1911
REMARK  564  A    between atoms: _1911  and  _1912
REMARK  565  A    between atoms: _1927  and  _1928
REMARK  566  A    between atoms: _1928  and  _1929
REMARK  567  A    between atoms: _1928  and  _1931
REMARK  568  A    between atoms: _1931  and  _1932
REMARK  569  A    between atoms: _1937  and  _1938
REMARK  570  A    between atoms: _1948  and  _1949
REMARK  571  A    between atoms: _1949  and  _1950
REMARK  572  A    between atoms: _1949  and  _1952
REMARK  573  A    between atoms: _1952  and  _1953
REMARK  574  A    between atoms: _1959  and  _1960
REMARK  575  A    between atoms: _1960  and  _1961
REMARK  576  A    between atoms: _1960  and  _1963
REMARK  577  A    between atoms: _1969  and  _1970
REMARK  578  A    between atoms: _1970  and  _1971
REMARK  579  A    between atoms: _1970  and  _1973
REMARK  580  A    between atoms: _1973  and  _1974
REMARK  581  A    between atoms: _1979  and  _1980
REMARK  582  A    between atoms: _1990  and  _1991
REMARK  583  A    between atoms: _1991  and  _1992
REMARK  584  A    between atoms: _1991  and  _1994
REMARK  585  A    between atoms: _1994  and  _1995
REMARK  586  A    between atoms: _1995  and  _1996
REMARK  587  A    between atoms: _1995  and  _1997
REMARK  588  A    between atoms: _2009  and  _2010
REMARK  589  A    between atoms: _2010  and  _2011
REMARK  590  A    between atoms: _2010  and  _2013
REMARK  591  A    between atoms: _2013  and  _2014
REMARK  592  A    between atoms: _2013  and  _2015
REMARK  593  A    between atoms: _2025  and  _2026
REMARK  594  A    between atoms: _2026  and  _2027
REMARK  595  A    between atoms: _2026  and  _2029
REMARK  596  A    between atoms: _2035  and  _2036
REMARK  597  A    between atoms: _2036  and  _2037
REMARK  598  A    between atoms: _2036  and  _2039
REMARK  599  A    between atoms: _2039  and  _2040
REMARK  600  A    between atoms: _2040  and  _2041
REMARK  601  A    between atoms: _2050  and  _2051
REMARK  602  A    between atoms: _2051  and  _2052
REMARK  603  A    between atoms: _2051  and  _2054
REMARK  604  A    between atoms: _2054  and  _2055
REMARK  605  A    between atoms: _2055  and  _2056
REMARK  606  A    between atoms: _2056  and  _2057
REMARK  607  A    between atoms: _2057  and  _2058
REMARK  608  A    between atoms: _2072  and  _2073
REMARK  609  A    between atoms: _2073  and  _2074
REMARK  610  A    between atoms: _2073  and  _2076
REMARK  611  A    between atoms: _2076  and  _2077
REMARK  612  A    between atoms: _2076  and  _2078
REMARK  613  A    between atoms: _2088  and  _2089
REMARK  614  A    between atoms: _2089  and  _2090
REMARK  615  A    between atoms: _2089  and  _2092
REMARK  616  A    between atoms: _2092  and  _2093
REMARK  617  A    between atoms: _2092  and  _2094
REMARK  618  A    between atoms: _2102  and  _2103
REMARK  619  A    between atoms: _2103  and  _2104
REMARK  620  A    between atoms: _2103  and  _2106
REMARK  621  A    between atoms: _2106  and  _2107
REMARK  622  A    between atoms: _2106  and  _2108
REMARK  623  A    between atoms: _2118  and  _2119
REMARK  624  A    between atoms: _2119  and  _2120
REMARK  625  A    between atoms: _2119  and  _2122
REMARK  626  A    between atoms: _2122  and  _2123
REMARK  627  A    between atoms: _2122  and  _2124
REMARK  628  A    between atoms: _2123  and  _2125
REMARK  629  A    between atoms: _2137  and  _2138
REMARK  630  A    between atoms: _2138  and  _2139
REMARK  631  A    between atoms: _2138  and  _2141
REMARK  632  A    between atoms: _2141  and  _2142
REMARK  633  A    between atoms: _2141  and  _2143
REMARK  634  A    between atoms: _2151  and  _2152
REMARK  635  A    between atoms: _2152  and  _2153
REMARK  636  A    between atoms: _2152  and  _2155
REMARK  637  A    between atoms: _2155  and  _2156
REMARK  638  A    between atoms: _2156  and  _2157
REMARK  639  A    between atoms: _2157  and  _2158
REMARK  640  A    between atoms: _2158  and  _2159
REMARK  641  A    between atoms: _2173  and  _2174
REMARK  642  A    between atoms: _2174  and  _2175
REMARK  643  A    between atoms: _2174  and  _2177
REMARK  644  A    between atoms: _2177  and  _2178
REMARK  645  A    between atoms: _2190  and  _2191
REMARK  646  A    between atoms: _2191  and  _2192
REMARK  647  A    between atoms: _2191  and  _2194
REMARK  648  A    between atoms: _2194  and  _2195
REMARK  649  A    between atoms: _2204  and  _2205
REMARK  650  A    between atoms: _2205  and  _2206
REMARK  651  A    between atoms: _2205  and  _2208
REMARK  652  A    between atoms: _2208  and  _2209
REMARK  653  A    between atoms: _2216  and  _2217
REMARK  654  A    between atoms: _2217  and  _2218
REMARK  655  A    between atoms: _2217  and  _2220
REMARK  656  A    between atoms: _2220  and  _2221
REMARK  657  A    between atoms: _2228  and  _2229
REMARK  658  A    between atoms: _2229  and  _2230
REMARK  659  A    between atoms: _2229  and  _2232
REMARK  660  A    between atoms: _2232  and  _2233
REMARK  661  A    between atoms: _2233  and  _2234
REMARK  662  A    between atoms: _2243  and  _2244
REMARK  663  A    between atoms: _2244  and  _2245
REMARK  664  A    between atoms: _2244  and  _2247
REMARK  665  A    between atoms: _2247  and  _2248
REMARK  666  A    between atoms: _2248  and  _2249
REMARK  667  A    between atoms: _2260  and  _2261
REMARK  668  A    between atoms: _2261  and  _2262
REMARK  669  A    between atoms: _2261  and  _2264
REMARK  670  A    between atoms: _2264  and  _2265
REMARK  671  A    between atoms: _2270  and  _2271
REMARK  672  A    between atoms: _2281  and  _2282
REMARK  673  A    between atoms: _2282  and  _2283
REMARK  674  A    between atoms: _2282  and  _2285
REMARK  675  A    between atoms: _2291  and  _2292
REMARK  676  A    between atoms: _2292  and  _2293
REMARK  677  A    between atoms: _2292  and  _2295
REMARK  678  A    between atoms: _2295  and  _2296
REMARK  679  A    between atoms: _2315  and  _2316
REMARK  680  A    between atoms: _2316  and  _2317
REMARK  681  A    between atoms: _2316  and  _2319
REMARK  682  A    between atoms: _2319  and  _2320
REMARK  683  A    between atoms: _2320  and  _2321
REMARK  684  A    between atoms: _2330  and  _2331
REMARK  685  A    between atoms: _2331  and  _2332
REMARK  686  A    between atoms: _2331  and  _2334
REMARK  687  A    between atoms: _2334  and  _2335
REMARK  688  A    between atoms: _2341  and  _2342
REMARK  689  A    between atoms: _2342  and  _2343
REMARK  690  A    between atoms: _2342  and  _2345
REMARK  691  A    between atoms: _2345  and  _2346
REMARK  692  A    between atoms: _2352  and  _2353
REMARK  693  A    between atoms: _2353  and  _2354
REMARK  694  A    between atoms: _2353  and  _2356
REMARK  695  A    between atoms: _2362  and  _2363
REMARK  696  A    between atoms: _2363  and  _2364
REMARK  697  A    between atoms: _2369  and  _2370
REMARK  698  A    between atoms: _2370  and  _2371
REMARK  699  A    between atoms: _2376  and  _2377
REMARK  700  A    between atoms: _2377  and  _2378
REMARK  701  A    between atoms: _2377  and  _2380
REMARK  702  A    between atoms: _2380  and  _2381
REMARK  703  A    between atoms: _2387  and  _2388
REMARK  704  A    between atoms: _2388  and  _2389
REMARK  705  A    between atoms: _2388  and  _2391
REMARK  706  A    between atoms: _2391  and  _2392
REMARK  707  A    between atoms: _2407  and  _2408
REMARK  708  A    between atoms: _2408  and  _2409
REMARK  709  A    between atoms: _2408  and  _2411
REMARK  710  A    between atoms: _2411  and  _2412
REMARK  711  A    between atoms: _2411  and  _2413
REMARK  712  A    between atoms: _2421  and  _2422
REMARK  713  A    between atoms: _2422  and  _2423
REMARK  714  A    between atoms: _2422  and  _2425
REMARK  715  A    between atoms: _2425  and  _2426
REMARK  716  A    between atoms: _2425  and  _2427
REMARK  717  A    between atoms: _2437  and  _2438
REMARK  718  A    between atoms: _2438  and  _2439
REMARK  719  A    between atoms: _2438  and  _2441
REMARK  720  A    between atoms: _2441  and  _2442
REMARK  721  A    between atoms: _2442  and  _2443
REMARK  722  A    between atoms: _2443  and  _2444
REMARK  723  A    between atoms: _2461  and  _2462
REMARK  724  A    between atoms: _2462  and  _2463
REMARK  725  A    between atoms: _2462  and  _2465
REMARK  726  A    between atoms: _2465  and  _2466
REMARK  727  A    between atoms: _2465  and  _2467
REMARK  728  A    between atoms: _2475  and  _2476
REMARK  729  A    between atoms: _2476  and  _2477
REMARK  730  A    between atoms: _2476  and  _2479
REMARK  731  A    between atoms: _2479  and  _2480
REMARK  732  A    between atoms: _2487  and  _2488
REMARK  733  A    between atoms: _2488  and  _2489
REMARK  734  A    between atoms: _2488  and  _2491
REMARK  735  A    between atoms: _2491  and  _2492
REMARK  736  A    between atoms: _2491  and  _2493
REMARK  737  A    between atoms: _2501  and  _2502
REMARK  738  A    between atoms: _2502  and  _2503
REMARK  739  A    between atoms: _2508  and  _2509
REMARK  740  A    between atoms: _2509  and  _2510
REMARK  741  A    between atoms: _2509  and  _2512
REMARK  742  A    between atoms: _2512  and  _2513
REMARK  743  A    between atoms: _2513  and  _2514
REMARK  744  A    between atoms: _2524  and  _2525
REMARK  745  A    between atoms: _2537  and  _2538
REMARK  746  A    between atoms: _2538  and  _2539
REMARK  747  A    between atoms: _2538  and  _2541
REMARK  748  A    between atoms: _2541  and  _2542
REMARK  749  A    between atoms: _2542  and  _2543
REMARK  750  A    between atoms: _2543  and  _2544
REMARK  751  A    between atoms: _2554  and  _2555
REMARK  752  A    between atoms: _2555  and  _2556
REMARK  753  A    between atoms: _2561  and  _2562
REMARK  754  A    between atoms: _2562  and  _2563
REMARK  755  A    between atoms: _2562  and  _2565
REMARK  756  A    between atoms: _2565  and  _2566
REMARK  757  A    between atoms: _2566  and  _2567
REMARK  758  A    between atoms: _2567  and  _2568
REMARK  759  A    between atoms: _2585  and  _2586
REMARK  760  A    between atoms: _2586  and  _2587
REMARK  761  A    between atoms: _2592  and  _2593
REMARK  762  A    between atoms: _2593  and  _2594
REMARK  763  A    between atoms: _2593  and  _2596
REMARK  764  A    between atoms: _2596  and  _2597
REMARK  765  A    between atoms: _2596  and  _2598
REMARK  766  A    between atoms: _2606  and  _2607
REMARK  767  A    between atoms: _2607  and  _2608
REMARK  768  A    between atoms: _2607  and  _2610
REMARK  769  A    between atoms: _2610  and  _2611
REMARK  770  A    between atoms: _2611  and  _2612
REMARK  771  A    between atoms: _2612  and  _2613
REMARK  772  A    between atoms: _2613  and  _2614
REMARK  773  A    between atoms: _2628  and  _2629
REMARK  774  A    between atoms: _2629  and  _2630
REMARK  775  A    between atoms: _2629  and  _2632
REMARK  776  A    between atoms: _2632  and  _2633
REMARK  777  A    between atoms: _2632  and  _2634
REMARK  778  A    between atoms: _2644  and  _2645
REMARK  779  A    between atoms: _2645  and  _2646
REMARK  780  A    between atoms: _2645  and  _2648
REMARK  781  A    between atoms: _2648  and  _2649
REMARK  782  A    between atoms: _2648  and  _2650
REMARK  783  A    between atoms: _2649  and  _2651
REMARK  784  A    between atoms: _2663  and  _2664
REMARK  785  A    between atoms: _2664  and  _2665
REMARK  786  A    between atoms: _2664  and  _2667
REMARK  787  A    between atoms: _2667  and  _2668
REMARK  788  A    between atoms: _2668  and  _2669
REMARK  789  A    between atoms: _2668  and  _2670
REMARK  790  A    between atoms: _2682  and  _2683
REMARK  791  A    between atoms: _2683  and  _2684
REMARK  792  A    between atoms: _2683  and  _2686
REMARK  793  A    between atoms: _2686  and  _2687
REMARK  794  A    between atoms: _2699  and  _2700
REMARK  795  A    between atoms: _2700  and  _2701
REMARK  796  A    between atoms: _2700  and  _2703
REMARK  797  A    between atoms: _2703  and  _2704
REMARK  798  A    between atoms: _2704  and  _2705
REMARK  799  A    between atoms: _2704  and  _2706
REMARK  800  A    between atoms: _2718  and  _2719
REMARK  801  A    between atoms: _2719  and  _2720
REMARK  802  A    between atoms: _2719  and  _2722
REMARK  803  A    between atoms: _2722  and  _2723
REMARK  804  A    between atoms: _2723  and  _2724
REMARK  805  A    between atoms: _2724  and  _2725
REMARK  806  A    between atoms: _2725  and  _2726
REMARK  807  A    between atoms: _2740  and  _2741
REMARK  808  A    between atoms: _2741  and  _2742
REMARK  809  A    between atoms: _2741  and  _2744
REMARK  810  A    between atoms: _2744  and  _2745
REMARK  811  A    between atoms: _2745  and  _2746
REMARK  812  A    between atoms: _2755  and  _2756
REMARK  813  A    between atoms: _2756  and  _2757
REMARK  814  A    between atoms: _2756  and  _2759
REMARK  815  A    between atoms: _2759  and  _2760
REMARK  816  A    between atoms: _2767  and  _2768
REMARK  817  A    between atoms: _2768  and  _2769
REMARK  818  A    between atoms: _2768  and  _2771
REMARK  819  A    between atoms: _2771  and  _2772
REMARK  820  A    between atoms: _2772  and  _2773
REMARK  821  A    between atoms: _2784  and  _2785
REMARK  822  A    between atoms: _2785  and  _2786
REMARK  823  A    between atoms: _2785  and  _2788
REMARK  824  A    between atoms: _2788  and  _2789
REMARK  825  A    between atoms: _2788  and  _2790
REMARK  826  A    between atoms: _2798  and  _2799
REMARK  827  A    between atoms: _2799  and  _2800
REMARK  828  A    between atoms: _2799  and  _2802
REMARK  829  A    between atoms: _2802  and  _2803
REMARK  830  A    between atoms: _2803  and  _2804
REMARK  831  A    between atoms: _2813  and  _2814
REMARK  832  A    between atoms: _2814  and  _2815
REMARK  833  A    between atoms: _2814  and  _2817
REMARK  834  A    between atoms: _2817  and  _2818
REMARK  835  A    between atoms: _2823  and  _2824
REMARK  836  A    between atoms: _2834  and  _2835
REMARK  837  A    between atoms: _2835  and  _2838
REMARK  838  A    between atoms: _2838  and  _2839
REMARK  839  A    between atoms: _2839  and  _2840
REMARK  840  A    between atoms: _2839  and  _2841
REMARK  841  A    between atoms: _2884  and  _2885
REMARK  842  A    between atoms: _2884  and  _2887
REMARK  843  A    between atoms: _2887  and  _2888
REMARK  844  A    between atoms: _2888  and  _2889
REMARK  845  A    between atoms: _2899  and  _2900
REMARK  846  A    between atoms: _2900  and  _2901
REMARK  847  A    between atoms: _2900  and  _2903
REMARK  848  A    between atoms: _2903  and  _2904
REMARK  849  A    between atoms: _2904  and  _2905
REMARK  850  A    between atoms: _2905  and  _2906
REMARK  851  A    between atoms: _2923  and  _2924
REMARK  852  A    between atoms: _2924  and  _2925
REMARK  853  A    between atoms: _2924  and  _2927
REMARK  854  A    between atoms: _2927  and  _2928
REMARK  855  A    between atoms: _2928  and  _2929
REMARK  856  A    between atoms: _2929  and  _2930
REMARK  857  A    between atoms: _2947  and  _2948
REMARK  858  A    between atoms: _2948  and  _2949
REMARK  859  A    between atoms: _2948  and  _2951
REMARK  860  A    between atoms: _2951  and  _2952
REMARK  861  A    between atoms: _2951  and  _2953
REMARK  862  A    between atoms: _2952  and  _2954
REMARK  863  A    between atoms: _2966  and  _2967
REMARK  864  A    between atoms: _2967  and  _2968
REMARK  865  A    between atoms: _2967  and  _2970
REMARK  866  A    between atoms: _2970  and  _2971
REMARK  867  A    between atoms: _2971  and  _2972
REMARK  868  A    between atoms: _2972  and  _2973
REMARK  869  A    between atoms: _2973  and  _2974
REMARK  870  A    between atoms: _2988  and  _2989
REMARK  871  A    between atoms: _2989  and  _2990
REMARK  872  A    between atoms: _2989  and  _2992
REMARK  873  A    between atoms: _2992  and  _2993
REMARK  874  A    between atoms: _2993  and  _2994
REMARK  875  A    between atoms: _3003  and  _3004
REMARK  876  A    between atoms: _3004  and  _3005
REMARK  877  A    between atoms: _3004  and  _3007
REMARK  878  A    between atoms: _3007  and  _3008
REMARK  879  A    between atoms: _3007  and  _3009
REMARK  880  A    between atoms: _3008  and  _3010
REMARK  881  A    between atoms: _3022  and  _3023
REMARK  882  A    between atoms: _3023  and  _3024
REMARK  883  A    between atoms: _3023  and  _3026
REMARK  884  A    between atoms: _3026  and  _3027
REMARK  885  A    between atoms: _3026  and  _3028
REMARK  886  A    between atoms: _3038  and  _3039
REMARK  887  A    between atoms: _3039  and  _3040
REMARK  888  A    between atoms: _3039  and  _3042
REMARK  889  A    between atoms: _3042  and  _3043
REMARK  890  A    between atoms: _3043  and  _3044
REMARK  891  A    between atoms: _3044  and  _3045
REMARK  892  A    between atoms: _3045  and  _3046
REMARK  893  A    between atoms: _3060  and  _3061
REMARK  894  A    between atoms: _3061  and  _3062
REMARK  895  A    between atoms: _3061  and  _3064
REMARK  896  A    between atoms: _3064  and  _3065
REMARK  897  A    between atoms: _3065  and  _3066
REMARK  898  A    between atoms: _3066  and  _3067
REMARK  899  A    between atoms: _3067  and  _3068
REMARK  900  A    between atoms: _3082  and  _3083
REMARK  901  A    between atoms: _3083  and  _3084
REMARK  902  A    between atoms: _3083  and  _3086
REMARK  903  A    between atoms: _3086  and  _3087
REMARK  904  A    between atoms: _3099  and  _3100
REMARK  905  A    between atoms: _3100  and  _3101
REMARK  906  A    between atoms: _3100  and  _3103
REMARK  907  A    between atoms: _3103  and  _3104
REMARK  908  A    between atoms: _3110  and  _3111
REMARK  909  A    between atoms: _3111  and  _3112
REMARK  910  A    between atoms: _3111  and  _3114
REMARK  911  A    between atoms: _3114  and  _3115
REMARK  912  A    between atoms: _3115  and  _3116
REMARK  913  A    between atoms: _3127  and  _3128
REMARK  914  A    between atoms: _3128  and  _3129
REMARK  915  A    between atoms: _3128  and  _3131
REMARK  916  A    between atoms: _3131  and  _3132
REMARK  917  A    between atoms: _3147  and  _3148
REMARK  918  A    between atoms: _3148  and  _3149
REMARK  919  A    between atoms: _3148  and  _3151
REMARK  920  A    between atoms: _3151  and  _3152
REMARK  921  A    between atoms: _3151  and  _3153
REMARK  922  A    between atoms: _3152  and  _3154
REMARK  923  A    between atoms: _3166  and  _3167
REMARK  924  A    between atoms: _3167  and  _3168
REMARK  925  A    between atoms: _3173  and  _3174
REMARK  926  A    between atoms: _3174  and  _3175
REMARK  927  A    between atoms: _3174  and  _3177
REMARK  928  A    between atoms: _3177  and  _3178
REMARK  929  A    between atoms: _3183  and  _3184
REMARK  930  A    between atoms: _3195  and  _3196
REMARK  931  A    between atoms: _3208  and  _3209
REMARK  932  A    between atoms: _3209  and  _3210
REMARK  933  A    between atoms: _3209  and  _3212
REMARK  934  A    between atoms: _3212  and  _3213
REMARK  935  A    between atoms: _3212  and  _3214
REMARK  936  A    between atoms: _3213  and  _3215
REMARK  937  A    between atoms: _3227  and  _3228
REMARK  938  A    between atoms: _3228  and  _3229
REMARK  939  A    between atoms: _3228  and  _3231
REMARK  940  A    between atoms: _3231  and  _3232
REMARK  941  A    between atoms: _3231  and  _3233
REMARK  942  A    between atoms: _3241  and  _3242
REMARK  943  A    between atoms: _3242  and  _3243
REMARK  944  A    between atoms: _3242  and  _3245
REMARK  945  A    between atoms: _3245  and  _3246
REMARK  946  A    between atoms: _3246  and  _3247
REMARK  947  A    between atoms: _3246  and  _3248
REMARK  948  A    between atoms: _3260  and  _3261
REMARK  949  A    between atoms: _3261  and  _3262
REMARK  950  A    between atoms: _3261  and  _3264
REMARK  951  A    between atoms: _3264  and  _3265
REMARK  952  A    between atoms: _3280  and  _3281
REMARK  953  A    between atoms: _3281  and  _3282
REMARK  954  A    between atoms: _3281  and  _3284
REMARK  955  A    between atoms: _3284  and  _3285
REMARK  956  A    between atoms: _3284  and  _3286
REMARK  957  A    between atoms: _3296  and  _3297
REMARK  958  A    between atoms: _3297  and  _3298
REMARK  959  A    between atoms: _3297  and  _3300
REMARK  960  A    between atoms: _3300  and  _3301
REMARK  961  A    between atoms: _3301  and  _3302
REMARK                            x       y       z     vdW  Elec       q    Type
REMARK                         _______ _______ _______ _____ _____    ______ ____
ROOT
ATOM      1  C   UNL     1      -9.566  20.021  41.145  0.00  0.00    +0.000 C 
ENDROOT
TORSDOF 0
REMARK  Name = /Users/mlugowska/PhD/ML_residence_time_prediction/protein_files/5J20_protein.pdb
REMARK  961 active torsions:
REMARK  status: ('A' for Active; 'I' for Inactive)
REMARK    1  A    between atoms: _2  and  _3
REMARK    2  A    between atoms: _2  and  _5
REMARK    3  A    between atoms: _10  and  _11
REMARK    4  A    between atoms: _11  and  _12
REMARK    5  A    between atoms: _11  and  _14
REMARK    6  A    between atoms: _14  and  _15
REMARK    7  A    between atoms: _14  and  _16
REMARK    8  A    between atoms: _26  and  _27
REMARK    9  A    between atoms: _27  and  _28
REMARK   10  A    between atoms: _27  and  _30
REMARK   11  A    between atoms: _30  and  _31
REMARK   12  A    between atoms: _31  and  _32
REMARK   13  A    between atoms: _41  and  _42
REMARK   14  A    between atoms: _42  and  _43
REMARK   15  A    between atoms: _42  and  _45
REMARK   16  A    between atoms: _45  and  _46
REMARK   17  A    between atoms: _45  and  _47
REMARK   18  A    between atoms: _55  and  _56
REMARK   19  A    between atoms: _56  and  _57
REMARK   20  A    between atoms: _56  and  _59
REMARK   21  A    between atoms: _59  and  _60
REMARK   22  A    between atoms: _75  and  _76
REMARK   23  A    between atoms: _76  and  _77
REMARK   24  A    between atoms: _76  and  _79
REMARK   25  A    between atoms: _85  and  _86
REMARK   26  A    between atoms: _86  and  _87
REMARK   27  A    between atoms: _86  and  _89
REMARK   28  A    between atoms: _89  and  _90
REMARK   29  A    between atoms: _105  and  _106
REMARK   30  A    between atoms: _106  and  _107
REMARK   31  A    between atoms: _106  and  _109
REMARK   32  A    between atoms: _109  and  _110
REMARK   33  A    between atoms: _110  and  _111
REMARK   34  A    between atoms: _122  and  _123
REMARK   35  A    between atoms: _123  and  _124
REMARK   36  A    between atoms: _123  and  _126
REMARK   37  A    between atoms: _132  and  _133
REMARK   38  A    between atoms: _133  and  _134
REMARK   39  A    between atoms: _133  and  _136
REMARK   40  A    between atoms: _136  and  _137
REMARK   41  A    between atoms: _137  and  _138
REMARK   42  A    between atoms: _147  and  _148
REMARK   43  A    between atoms: _148  and  _149
REMARK   44  A    between atoms: _148  and  _151
REMARK   45  A    between atoms: _151  and  _152
REMARK   46  A    between atoms: _151  and  _153
REMARK   47  A    between atoms: _152  and  _154
REMARK   48  A    between atoms: _166  and  _167
REMARK   49  A    between atoms: _167  and  _168
REMARK   50  A    between atoms: _167  and  _170
REMARK   51  A    between atoms: _176  and  _177
REMARK   52  A    between atoms: _177  and  _178
REMARK   53  A    between atoms: _177  and  _180
REMARK   54  A    between atoms: _180  and  _181
REMARK   55  A    between atoms: _181  and  _182
REMARK   56  A    between atoms: _193  and  _194
REMARK   57  A    between atoms: _194  and  _195
REMARK   58  A    between atoms: _194  and  _197
REMARK   59  A    between atoms: _197  and  _198
REMARK   60  A    between atoms: _198  and  _199
REMARK   61  A    between atoms: _198  and  _200
REMARK   62  A    between atoms: _212  and  _213
REMARK   63  A    between atoms: _213  and  _214
REMARK   64  A    between atoms: _213  and  _216
REMARK   65  A    between atoms: _216  and  _217
REMARK   66  A    between atoms: _217  and  _218
REMARK   67  A    between atoms: _218  and  _219
REMARK   68  A    between atoms: _229  and  _230
REMARK   69  A    between atoms: _230  and  _231
REMARK   70  A    between atoms: _230  and  _233
REMARK   71  A    between atoms: _233  and  _234
REMARK   72  A    between atoms: _240  and  _241
REMARK   73  A    between atoms: _241  and  _242
REMARK   74  A    between atoms: _241  and  _244
REMARK   75  A    between atoms: _244  and  _245
REMARK   76  A    between atoms: _245  and  _246
REMARK   77  A    between atoms: _245  and  _247
REMARK   78  A    between atoms: _259  and  _260
REMARK   79  A    between atoms: _260  and  _261
REMARK   80  A    between atoms: _260  and  _263
REMARK   81  A    between atoms: _263  and  _264
REMARK   82  A    between atoms: _263  and  _265
REMARK   83  A    between atoms: _264  and  _266
REMARK   84  A    between atoms: _278  and  _279
REMARK   85  A    between atoms: _279  and  _280
REMARK   86  A    between atoms: _279  and  _282
REMARK   87  A    between atoms: _282  and  _283
REMARK   88  A    between atoms: _282  and  _284
REMARK   89  A    between atoms: _283  and  _285
REMARK   90  A    between atoms: _297  and  _298
REMARK   91  A    between atoms: _298  and  _299
REMARK   92  A    between atoms: _298  and  _301
REMARK   93  A    between atoms: _301  and  _302
REMARK   94  A    between atoms: _311  and  _312
REMARK   95  A    between atoms: _312  and  _313
REMARK   96  A    between atoms: _312  and  _315
REMARK   97  A    between atoms: _315  and  _316
REMARK   98  A    between atoms: _315  and  _317
REMARK   99  A    between atoms: _325  and  _326
REMARK  100  A    between atoms: _326  and  _327
REMARK  101  A    between atoms: _326  and  _329
REMARK  102  A    between atoms: _329  and  _330
REMARK  103  A    between atoms: _345  and  _346
REMARK  104  A    between atoms: _346  and  _347
REMARK  105  A    between atoms: _346  and  _349
REMARK  106  A    between atoms: _349  and  _350
REMARK  107  A    between atoms: _355  and  _356
REMARK  108  A    between atoms: _366  and  _367
REMARK  109  A    between atoms: _367  and  _368
REMARK  110  A    between atoms: _367  and  _370
REMARK  111  A    between atoms: _370  and  _371
REMARK  112  A    between atoms: _377  and  _378
REMARK  113  A    between atoms: _378  and  _379
REMARK  114  A    between atoms: _378  and  _381
REMARK  115  A    between atoms: _381  and  _382
REMARK  116  A    between atoms: _391  and  _392
REMARK  117  A    between atoms: _392  and  _393
REMARK  118  A    between atoms: _392  and  _395
REMARK  119  A    between atoms: _395  and  _396
REMARK  120  A    between atoms: _396  and  _397
REMARK  121  A    between atoms: _397  and  _398
REMARK  122  A    between atoms: _398  and  _399
REMARK  123  A    between atoms: _413  and  _414
REMARK  124  A    between atoms: _414  and  _415
REMARK  125  A    between atoms: _414  and  _417
REMARK  126  A    between atoms: _417  and  _418
REMARK  127  A    between atoms: _418  and  _419
REMARK  128  A    between atoms: _428  and  _429
REMARK  129  A    between atoms: _429  and  _430
REMARK  130  A    between atoms: _429  and  _432
REMARK  131  A    between atoms: _432  and  _433
REMARK  132  A    between atoms: _432  and  _434
REMARK  133  A    between atoms: _433  and  _435
REMARK  134  A    between atoms: _447  and  _448
REMARK  135  A    between atoms: _448  and  _449
REMARK  136  A    between atoms: _448  and  _451
REMARK  137  A    between atoms: _451  and  _452
REMARK  138  A    between atoms: _467  and  _468
REMARK  139  A    between atoms: _468  and  _469
REMARK  140  A    between atoms: _468  and  _471
REMARK  141  A    between atoms: _471  and  _472
REMARK  142  A    between atoms: _472  and  _473
REMARK  143  A    between atoms: _472  and  _474
REMARK  144  A    between atoms: _486  and  _487
REMARK  145  A    between atoms: _487  and  _488
REMARK  146  A    between atoms: _487  and  _490
REMARK  147  A    between atoms: _490  and  _491
REMARK  148  A    between atoms: _491  and  _492
REMARK  149  A    between atoms: _492  and  _493
REMARK  150  A    between atoms: _510  and  _511
REMARK  151  A    between atoms: _511  and  _512
REMARK  152  A    between atoms: _511  and  _514
REMARK  153  A    between atoms: _514  and  _515
REMARK  154  A    between atoms: _515  and  _516
REMARK  155  A    between atoms: _525  and  _526
REMARK  156  A    between atoms: _526  and  _527
REMARK  157  A    between atoms: _526  and  _529
REMARK  158  A    between atoms: _529  and  _530
REMARK  159  A    between atoms: _530  and  _531
REMARK  160  A    between atoms: _530  and  _532
REMARK  161  A    between atoms: _544  and  _545
REMARK  162  A    between atoms: _545  and  _546
REMARK  163  A    between atoms: _545  and  _548
REMARK  164  A    between atoms: _548  and  _549
REMARK  165  A    between atoms: _548  and  _550
REMARK  166  A    between atoms: _549  and  _551
REMARK  167  A    between atoms: _563  and  _564
REMARK  168  A    between atoms: _564  and  _565
REMARK  169  A    between atoms: _564  and  _567
REMARK  170  A    between atoms: _567  and  _568
REMARK  171  A    between atoms: _574  and  _575
REMARK  172  A    between atoms: _575  and  _576
REMARK  173  A    between atoms: _575  and  _578
REMARK  174  A    between atoms: _578  and  _579
REMARK  175  A    between atoms: _588  and  _589
REMARK  176  A    between atoms: _589  and  _590
REMARK  177  A    between atoms: _589  and  _592
REMARK  178  A    between atoms: _592  and  _593
REMARK  179  A    between atoms: _599  and  _600
REMARK  180  A    between atoms: _600  and  _601
REMARK  181  A    between atoms: _600  and  _603
REMARK  182  A    between atoms: _603  and  _604
REMARK  183  A    between atoms: _610  and  _611
REMARK  184  A    between atoms: _611  and  _612
REMARK  185  A    between atoms: _611  and  _614
REMARK  186  A    between atoms: _614  and  _615
REMARK  187  A    between atoms: _622  and  _623
REMARK  188  A    between atoms: _623  and  _624
REMARK  189  A    between atoms: _623  and  _626
REMARK  190  A    between atoms: _632  and  _633
REMARK  191  A    between atoms: _633  and  _634
REMARK  192  A    between atoms: _633  and  _636
REMARK  193  A    between atoms: _636  and  _637
REMARK  194  A    between atoms: _637  and  _638
REMARK  195  A    between atoms: _637  and  _639
REMARK  196  A    between atoms: _651  and  _652
REMARK  197  A    between atoms: _652  and  _653
REMARK  198  A    between atoms: _652  and  _655
REMARK  199  A    between atoms: _655  and  _656
REMARK  200  A    between atoms: _663  and  _664
REMARK  201  A    between atoms: _664  and  _665
REMARK  202  A    between atoms: _664  and  _667
REMARK  203  A    between atoms: _667  and  _668
REMARK  204  A    between atoms: _668  and  _669
REMARK  205  A    between atoms: _669  and  _670
REMARK  206  A    between atoms: _670  and  _671
REMARK  207  A    between atoms: _685  and  _686
REMARK  208  A    between atoms: _686  and  _687
REMARK  209  A    between atoms: _686  and  _689
REMARK  210  A    between atoms: _689  and  _690
REMARK  211  A    between atoms: _689  and  _691
REMARK  212  A    between atoms: _690  and  _692
REMARK  213  A    between atoms: _704  and  _705
REMARK  214  A    between atoms: _705  and  _706
REMARK  215  A    between atoms: _705  and  _708
REMARK  216  A    between atoms: _708  and  _709
REMARK  217  A    between atoms: _709  and  _710
REMARK  218  A    between atoms: _710  and  _711
REMARK  219  A    between atoms: _728  and  _729
REMARK  220  A    between atoms: _729  and  _730
REMARK  221  A    between atoms: _729  and  _732
REMARK  222  A    between atoms: _732  and  _733
REMARK  223  A    between atoms: _738  and  _739
REMARK  224  A    between atoms: _749  and  _750
REMARK  225  A    between atoms: _750  and  _751
REMARK  226  A    between atoms: _750  and  _753
REMARK  227  A    between atoms: _753  and  _754
REMARK  228  A    between atoms: _754  and  _755
REMARK  229  A    between atoms: _764  and  _765
REMARK  230  A    between atoms: _765  and  _766
REMARK  231  A    between atoms: _765  and  _768
REMARK  232  A    between atoms: _772  and  _773
REMARK  233  A    between atoms: _773  and  _774
REMARK  234  A    between atoms: _773  and  _776
REMARK  235  A    between atoms: _776  and  _777
REMARK  236  A    between atoms: _777  and  _778
REMARK  237  A    between atoms: _777  and  _779
REMARK  238  A    between atoms: _791  and  _792
REMARK  239  A    between atoms: _792  and  _793
REMARK  240  A    between atoms: _792  and  _795
REMARK  241  A    between atoms: _795  and  _796
REMARK  242  A    between atoms: _795  and  _797
REMARK  243  A    between atoms: _805  and  _806
REMARK  244  A    between atoms: _806  and  _807
REMARK  245  A    between atoms: _806  and  _809
REMARK  246  A    between atoms: _809  and  _810
REMARK  247  A    between atoms: _818  and  _819
REMARK  248  A    between atoms: _831  and  _832
REMARK  249  A    between atoms: _832  and  _833
REMARK  250  A    between atoms: _832  and  _835
REMARK  251  A    between atoms: _835  and  _836
REMARK  252  A    between atoms: _842  and  _843
REMARK  253  A    between atoms: _843  and  _844
REMARK  254  A    between atoms: _843  and  _846
REMARK  255  A    between atoms: _846  and  _847
REMARK  256  A    between atoms: _847  and  _848
REMARK  257  A    between atoms: _848  and  _849
REMARK  258  A    between atoms: _849  and  _850
REMARK  259  A    between atoms: _864  and  _865
REMARK  260  A    between atoms: _865  and  _866
REMARK  261  A    between atoms: _865  and  _868
REMARK  262  A    between atoms: _868  and  _869
REMARK  263  A    between atoms: _869  and  _870
REMARK  264  A    between atoms: _869  and  _871
REMARK  265  A    between atoms: _883  and  _884
REMARK  266  A    between atoms: _884  and  _885
REMARK  267  A    between atoms: _884  and  _887
REMARK  268  A    between atoms: _887  and  _888
REMARK  269  A    between atoms: _895  and  _896
REMARK  270  A    between atoms: _896  and  _897
REMARK  271  A    between atoms: _896  and  _899
REMARK  272  A    between atoms: _899  and  _900
REMARK  273  A    between atoms: _906  and  _907
REMARK  274  A    between atoms: _907  and  _908
REMARK  275  A    between atoms: _913  and  _914
REMARK  276  A    between atoms: _914  and  _915
REMARK  277  A    between atoms: _914  and  _917
REMARK  278  A    between atoms: _917  and  _918
REMARK  279  A    between atoms: _918  and  _919
REMARK  280  A    between atoms: _919  and  _920
REMARK  281  A    between atoms: _920  and  _921
REMARK  282  A    between atoms: _935  and  _936
REMARK  283  A    between atoms: _936  and  _937
REMARK  284  A    between atoms: _936  and  _939
REMARK  285  A    between atoms: _939  and  _940
REMARK  286  A    between atoms: _940  and  _941
REMARK  287  A    between atoms: _950  and  _951
REMARK  288  A    between atoms: _951  and  _952
REMARK  289  A    between atoms: _951  and  _954
REMARK  290  A    between atoms: _954  and  _955
REMARK  291  A    between atoms: _955  and  _956
REMARK  292  A    between atoms: _955  and  _957
REMARK  293  A    between atoms: _969  and  _970
REMARK  294  A    between atoms: _970  and  _971
REMARK  295  A    between atoms: _970  and  _973
REMARK  296  A    between atoms: _973  and  _974
REMARK  297  A    between atoms: _986  and  _987
REMARK  298  A    between atoms: _987  and  _988
REMARK  299  A    between atoms: _987  and  _990
REMARK  300  A    between atoms: _990  and  _991
REMARK  301  A    between atoms: _990  and  _992
REMARK  302  A    between atoms: _991  and  _993
REMARK  303  A    between atoms: _1005  and  _1006
REMARK  304  A    between atoms: _1006  and  _1007
REMARK  305  A    between atoms: _1006  and  _1009
REMARK  306  A    between atoms: _1009  and  _1010
REMARK  307  A    between atoms: _1019  and  _1020
REMARK  308  A    between atoms: _1020  and  _1021
REMARK  309  A    between atoms: _1020  and  _1023
REMARK  310  A    between atoms: _1023  and  _1024
REMARK  311  A    between atoms: _1024  and  _1025
REMARK  312  A    between atoms: _1024  and  _1026
REMARK  313  A    between atoms: _1038  and  _1039
REMARK  314  A    between atoms: _1039  and  _1040
REMARK  315  A    between atoms: _1039  and  _1042
REMARK  316  A    between atoms: _1042  and  _1043
REMARK  317  A    between atoms: _1042  and  _1044
REMARK  318  A    between atoms: _1043  and  _1045
REMARK  319  A    between atoms: _1058  and  _1059
REMARK  320  A    between atoms: _1071  and  _1072
REMARK  321  A    between atoms: _1072  and  _1073
REMARK  322  A    between atoms: _1072  and  _1075
REMARK  323  A    between atoms: _1075  and  _1076
REMARK  324  A    between atoms: _1085  and  _1086
REMARK  325  A    between atoms: _1086  and  _1087
REMARK  326  A    between atoms: _1086  and  _1089
REMARK  327  A    between atoms: _1089  and  _1090
REMARK  328  A    between atoms: _1090  and  _1091
REMARK  329  A    between atoms: _1091  and  _1092
REMARK  330  A    between atoms: _1092  and  _1093
REMARK  331  A    between atoms: _1107  and  _1108
REMARK  332  A    between atoms: _1108  and  _1109
REMARK  333  A    between atoms: _1108  and  _1111
REMARK  334  A    between atoms: _1111  and  _1112
REMARK  335  A    between atoms: _1112  and  _1113
REMARK  336  A    between atoms: _1124  and  _1125
REMARK  337  A    between atoms: _1125  and  _1126
REMARK  338  A    between atoms: _1125  and  _1128
REMARK  339  A    between atoms: _1128  and  _1129
REMARK  340  A    between atoms: _1136  and  _1137
REMARK  341  A    between atoms: _1137  and  _1138
REMARK  342  A    between atoms: _1137  and  _1140
REMARK  343  A    between atoms: _1140  and  _1141
REMARK  344  A    between atoms: _1141  and  _1142
REMARK  345  A    between atoms: _1142  and  _1143
REMARK  346  A    between atoms: _1160  and  _1161
REMARK  347  A    between atoms: _1161  and  _1162
REMARK  348  A    between atoms: _1161  and  _1164
REMARK  349  A    between atoms: _1164  and  _1165
REMARK  350  A    between atoms: _1164  and  _1166
REMARK  351  A    between atoms: _1174  and  _1175
REMARK  352  A    between atoms: _1175  and  _1176
REMARK  353  A    between atoms: _1175  and  _1178
REMARK  354  A    between atoms: _1178  and  _1179
REMARK  355  A    between atoms: _1179  and  _1180
REMARK  356  A    between atoms: _1179  and  _1181
REMARK  357  A    between atoms: _1193  and  _1194
REMARK  358  A    between atoms: _1194  and  _1195
REMARK  359  A    between atoms: _1194  and  _1197
REMARK  360  A    between atoms: _1197  and  _1198
REMARK  361  A    between atoms: _1197  and  _1199
REMARK  362  A    between atoms: _1207  and  _1208
REMARK  363  A    between atoms: _1208  and  _1209
REMARK  364  A    between atoms: _1208  and  _1211
REMARK  365  A    between atoms: _1211  and  _1212
REMARK  366  A    between atoms: _1211  and  _1213
REMARK  367  A    between atoms: _1212  and  _1214
REMARK  368  A    between atoms: _1226  and  _1227
REMARK  369  A    between atoms: _1227  and  _1228
REMARK  370  A    between atoms: _1227  and  _1230
REMARK  371  A    between atoms: _1230  and  _1231
REMARK  372  A    between atoms: _1230  and  _1232
REMARK  373  A    between atoms: _1242  and  _1243
REMARK  374  A    between atoms: _1243  and  _1244
REMARK  375  A    between atoms: _1243  and  _1246
REMARK  376  A    between atoms: _1246  and  _1247
REMARK  377  A    between atoms: _1254  and  _1255
REMARK  378  A    between atoms: _1255  and  _1256
REMARK  379  A    between atoms: _1255  and  _1258
REMARK  380  A    between atoms: _1258  and  _1259
REMARK  381  A    between atoms: _1258  and  _1260
REMARK  382  A    between atoms: _1268  and  _1269
REMARK  383  A    between atoms: _1269  and  _1270
REMARK  384  A    between atoms: _1275  and  _1276
REMARK  385  A    between atoms: _1276  and  _1277
REMARK  386  A    between atoms: _1276  and  _1279
REMARK  387  A    between atoms: _1279  and  _1280
REMARK  388  A    between atoms: _1279  and  _1281
REMARK  389  A    between atoms: _1280  and  _1282
REMARK  390  A    between atoms: _1294  and  _1295
REMARK  391  A    between atoms: _1295  and  _1296
REMARK  392  A    between atoms: _1301  and  _1302
REMARK  393  A    between atoms: _1302  and  _1303
REMARK  394  A    between atoms: _1302  and  _1305
REMARK  395  A    between atoms: _1305  and  _1306
REMARK  396  A    between atoms: _1306  and  _1307
REMARK  397  A    between atoms: _1307  and  _1308
REMARK  398  A    between atoms: _1318  and  _1319
REMARK  399  A    between atoms: _1319  and  _1320
REMARK  400  A    between atoms: _1319  and  _1322
REMARK  401  A    between atoms: _1322  and  _1323
REMARK  402  A    between atoms: _1322  and  _1324
REMARK  403  A    between atoms: _1332  and  _1333
REMARK  404  A    between atoms: _1333  and  _1334
REMARK  405  A    between atoms: _1333  and  _1336
REMARK  406  A    between atoms: _1336  and  _1337
REMARK  407  A    between atoms: _1337  and  _1338
REMARK  408  A    between atoms: _1338  and  _1339
REMARK  409  A    between atoms: _1339  and  _1340
REMARK  410  A    between atoms: _1354  and  _1355
REMARK  411  A    between atoms: _1355  and  _1356
REMARK  412  A    between atoms: _1355  and  _1358
REMARK  413  A    between atoms: _1364  and  _1365
REMARK  414  A    between atoms: _1365  and  _1366
REMARK  415  A    between atoms: _1365  and  _1368
REMARK  416  A    between atoms: _1368  and  _1369
REMARK  417  A    between atoms: _1376  and  _1377
REMARK  418  A    between atoms: _1377  and  _1378
REMARK  419  A    between atoms: _1377  and  _1380
REMARK  420  A    between atoms: _1380  and  _1381
REMARK  421  A    between atoms: _1381  and  _1382
REMARK  422  A    between atoms: _1381  and  _1383
REMARK  423  A    between atoms: _1395  and  _1396
REMARK  424  A    between atoms: _1396  and  _1399
REMARK  425  A    between atoms: _1399  and  _1400
REMARK  426  A    between atoms: _1399  and  _1401
REMARK  427  A    between atoms: _1400  and  _1402
REMARK  428  A    between atoms: _1422  and  _1425
REMARK  429  A    between atoms: _1424  and  _1428
REMARK  430  A    between atoms: _1425  and  _1427
REMARK  431  A    between atoms: _1443  and  _1444
REMARK  432  A    between atoms: _1443  and  _1446
REMARK  433  A    between atoms: _1446  and  _1447
REMARK  434  A    between atoms: _1457  and  _1458
REMARK  435  A    between atoms: _1458  and  _1459
REMARK  436  A    between atoms: _1458  and  _1461
REMARK  437  A    between atoms: _1461  and  _1462
REMARK  438  A    between atoms: _1462  and  _1463
REMARK  439  A    between atoms: _1462  and  _1464
REMARK  440  A    between atoms: _1476  and  _1477
REMARK  441  A    between atoms: _1477  and  _1478
REMARK  442  A    between atoms: _1483  and  _1484
REMARK  443  A    between atoms: _1484  and  _1485
REMARK  444  A    between atoms: _1484  and  _1487
REMARK  445  A    between atoms: _1487  and  _1488
REMARK  446  A    between atoms: _1487  and  _1489
REMARK  447  A    between atoms: _1497  and  _1498
REMARK  448  A    between atoms: _1498  and  _1499
REMARK  449  A    between atoms: _1498  and  _1501
REMARK  450  A    between atoms: _1501  and  _1502
REMARK  451  A    between atoms: _1501  and  _1503
REMARK  452  A    between atoms: _1502  and  _1504
REMARK  453  A    between atoms: _1516  and  _1517
REMARK  454  A    between atoms: _1517  and  _1518
REMARK  455  A    between atoms: _1517  and  _1520
REMARK  456  A    between atoms: _1526  and  _1527
REMARK  457  A    between atoms: _1527  and  _1528
REMARK  458  A    between atoms: _1527  and  _1530
REMARK  459  A    between atoms: _1530  and  _1531
REMARK  460  A    between atoms: _1531  and  _1532
REMARK  461  A    between atoms: _1532  and  _1533
REMARK  462  A    between atoms: _1533  and  _1534
REMARK  463  A    between atoms: _1548  and  _1549
REMARK  464  A    between atoms: _1549  and  _1550
REMARK  465  A    between atoms: _1549  and  _1552
REMARK  466  A    between atoms: _1552  and  _1553
REMARK  467  A    between atoms: _1559  and  _1560
REMARK  468  A    between atoms: _1560  and  _1561
REMARK  469  A    between atoms: _1566  and  _1567
REMARK  470  A    between atoms: _1567  and  _1568
REMARK  471  A    between atoms: _1567  and  _1570
REMARK  472  A    between atoms: _1570  and  _1571
REMARK  473  A    between atoms: _1570  and  _1572
REMARK  474  A    between atoms: _1580  and  _1581
REMARK  475  A    between atoms: _1581  and  _1582
REMARK  476  A    between atoms: _1581  and  _1584
REMARK  477  A    between atoms: _1584  and  _1585
REMARK  478  A    between atoms: _1585  and  _1586
REMARK  479  A    between atoms: _1586  and  _1587
REMARK  480  A    between atoms: _1587  and  _1588
REMARK  481  A    between atoms: _1602  and  _1603
REMARK  482  A    between atoms: _1603  and  _1604
REMARK  483  A    between atoms: _1603  and  _1606
REMARK  484  A    between atoms: _1612  and  _1613
REMARK  485  A    between atoms: _1613  and  _1614
REMARK  486  A    between atoms: _1613  and  _1616
REMARK  487  A    between atoms: _1616  and  _1617
REMARK  488  A    between atoms: _1632  and  _1633
REMARK  489  A    between atoms: _1633  and  _1634
REMARK  490  A    between atoms: _1633  and  _1636
REMARK  491  A    between atoms: _1636  and  _1637
REMARK  492  A    between atoms: _1637  and  _1638
REMARK  493  A    between atoms: _1638  and  _1639
REMARK  494  A    between atoms: _1649  and  _1650
REMARK  495  A    between atoms: _1650  and  _1651
REMARK  496  A    between atoms: _1650  and  _1653
REMARK  497  A    between atoms: _1653  and  _1654
REMARK  498  A    between atoms: _1654  and  _1655
REMARK  499  A    between atoms: _1664  and  _1665
REMARK  500  A    between atoms: _1665  and  _1666
REMARK  501  A    between atoms: _1665  and  _1668
REMARK  502  A    between atoms: _1674  and  _1675
REMARK  503  A    between atoms: _1675  and  _1676
REMARK  504  A    between atoms: _1675  and  _1678
REMARK  505  A    between atoms: _1678  and  _1679
REMARK  506  A    between atoms: _1679  and  _1680
REMARK  507  A    between atoms: _1679  and  _1681
REMARK  508  A    between atoms: _1693  and  _1694
REMARK  509  A    between atoms: _1694  and  _1695
REMARK  510  A    between atoms: _1694  and  _1697
REMARK  511  A    between atoms: _1697  and  _1698
REMARK  512  A    between atoms: _1698  and  _1699
REMARK  513  A    between atoms: _1710  and  _1711
REMARK  514  A    between atoms: _1711  and  _1712
REMARK  515  A    between atoms: _1711  and  _1714
REMARK  516  A    between atoms: _1720  and  _1721
REMARK  517  A    between atoms: _1721  and  _1722
REMARK  518  A    between atoms: _1727  and  _1728
REMARK  519  A    between atoms: _1728  and  _1729
REMARK  520  A    between atoms: _1728  and  _1731
REMARK  521  A    between atoms: _1737  and  _1738
REMARK  522  A    between atoms: _1738  and  _1739
REMARK  523  A    between atoms: _1738  and  _1741
REMARK  524  A    between atoms: _1741  and  _1742
REMARK  525  A    between atoms: _1749  and  _1750
REMARK  526  A    between atoms: _1750  and  _1751
REMARK  527  A    between atoms: _1750  and  _1753
REMARK  528  A    between atoms: _1753  and  _1754
REMARK  529  A    between atoms: _1753  and  _1755
REMARK  530  A    between atoms: _1754  and  _1756
REMARK  531  A    between atoms: _1768  and  _1769
REMARK  532  A    between atoms: _1769  and  _1772
REMARK  533  A    between atoms: _1772  and  _1773
REMARK  534  A    between atoms: _1791  and  _1793
REMARK  535  A    between atoms: _1792  and  _1794
REMARK  536  A    between atoms: _1814  and  _1815
REMARK  537  A    between atoms: _1814  and  _1817
REMARK  538  A    between atoms: _1817  and  _1818
REMARK  539  A    between atoms: _1817  and  _1819
REMARK  540  A    between atoms: _1818  and  _1820
REMARK  541  A    between atoms: _1833  and  _1834
REMARK  542  A    between atoms: _1834  and  _1835
REMARK  543  A    between atoms: _1840  and  _1841
REMARK  544  A    between atoms: _1841  and  _1842
REMARK  545  A    between atoms: _1841  and  _1844
REMARK  546  A    between atoms: _1844  and  _1845
REMARK  547  A    between atoms: _1845  and  _1846
REMARK  548  A    between atoms: _1857  and  _1858
REMARK  549  A    between atoms: _1858  and  _1859
REMARK  550  A    between atoms: _1858  and  _1861
REMARK  551  A    between atoms: _1861  and  _1862
REMARK  552  A    between atoms: _1877  and  _1878
REMARK  553  A    between atoms: _1878  and  _1879
REMARK  554  A    between atoms: _1884  and  _1885
REMARK  555  A    between atoms: _1885  and  _1886
REMARK  556  A    between atoms: _1885  and  _1888
REMARK  557  A    between atoms: _1888  and  _1889
REMARK  558  A    between atoms: _1888  and  _1890
REMARK  559  A    between atoms: _1900  and  _1901
REMARK  560  A    between atoms: _1901  and  _1902
REMARK  561  A    between atoms: _1907  and  _1908
REMARK  562  A    between atoms: _1908  and  _1909
REMARK  563  A    between atoms: _1908  and  _1911
REMARK  564  A    between atoms: _1911  and  _1912
REMARK  565  A    between atoms: _1927  and  _1928
REMARK  566  A    between atoms: _1928  and  _1929
REMARK  567  A    between atoms: _1928  and  _1931
REMARK  568  A    between atoms: _1931  and  _1932
REMARK  569  A    between atoms: _1937  and  _1938
REMARK  570  A    between atoms: _1948  and  _1949
REMARK  571  A    between atoms: _1949  and  _1950
REMARK  572  A    between atoms: _1949  and  _1952
REMARK  573  A    between atoms: _1952  and  _1953
REMARK  574  A    between atoms: _1959  and  _1960
REMARK  575  A    between atoms: _1960  and  _1961
REMARK  576  A    between atoms: _1960  and  _1963
REMARK  577  A    between atoms: _1969  and  _1970
REMARK  578  A    between atoms: _1970  and  _1971
REMARK  579  A    between atoms: _1970  and  _1973
REMARK  580  A    between atoms: _1973  and  _1974
REMARK  581  A    between atoms: _1979  and  _1980
REMARK  582  A    between atoms: _1990  and  _1991
REMARK  583  A    between atoms: _1991  and  _1992
REMARK  584  A    between atoms: _1991  and  _1994
REMARK  585  A    between atoms: _1994  and  _1995
REMARK  586  A    between atoms: _1995  and  _1996
REMARK  587  A    between atoms: _1995  and  _1997
REMARK  588  A    between atoms: _2009  and  _2010
REMARK  589  A    between atoms: _2010  and  _2011
REMARK  590  A    between atoms: _2010  and  _2013
REMARK  591  A    between atoms: _2013  and  _2014
REMARK  592  A    between atoms: _2013  and  _2015
REMARK  593  A    between atoms: _2025  and  _2026
REMARK  594  A    between atoms: _2026  and  _2027
REMARK  595  A    between atoms: _2026  and  _2029
REMARK  596  A    between atoms: _2035  and  _2036
REMARK  597  A    between atoms: _2036  and  _2037
REMARK  598  A    between atoms: _2036  and  _2039
REMARK  599  A    between atoms: _2039  and  _2040
REMARK  600  A    between atoms: _2040  and  _2041
REMARK  601  A    between atoms: _2050  and  _2051
REMARK  602  A    between atoms: _2051  and  _2052
REMARK  603  A    between atoms: _2051  and  _2054
REMARK  604  A    between atoms: _2054  and  _2055
REMARK  605  A    between atoms: _2055  and  _2056
REMARK  606  A    between atoms: _2056  and  _2057
REMARK  607  A    between atoms: _2057  and  _2058
REMARK  608  A    between atoms: _2072  and  _2073
REMARK  609  A    between atoms: _2073  and  _2074
REMARK  610  A    between atoms: _2073  and  _2076
REMARK  611  A    between atoms: _2076  and  _2077
REMARK  612  A    between atoms: _2076  and  _2078
REMARK  613  A    between atoms: _2088  and  _2089
REMARK  614  A    between atoms: _2089  and  _2090
REMARK  615  A    between atoms: _2089  and  _2092
REMARK  616  A    between atoms: _2092  and  _2093
REMARK  617  A    between atoms: _2092  and  _2094
REMARK  618  A    between atoms: _2102  and  _2103
REMARK  619  A    between atoms: _2103  and  _2104
REMARK  620  A    between atoms: _2103  and  _2106
REMARK  621  A    between atoms: _2106  and  _2107
REMARK  622  A    between atoms: _2106  and  _2108
REMARK  623  A    between atoms: _2118  and  _2119
REMARK  624  A    between atoms: _2119  and  _2120
REMARK  625  A    between atoms: _2119  and  _2122
REMARK  626  A    between atoms: _2122  and  _2123
REMARK  627  A    between atoms: _2122  and  _2124
REMARK  628  A    between atoms: _2123  and  _2125
REMARK  629  A    between atoms: _2137  and  _2138
REMARK  630  A    between atoms: _2138  and  _2139
REMARK  631  A    between atoms: _2138  and  _2141
REMARK  632  A    between atoms: _2141  and  _2142
REMARK  633  A    between atoms: _2141  and  _2143
REMARK  634  A    between atoms: _2151  and  _2152
REMARK  635  A    between atoms: _2152  and  _2153
REMARK  636  A    between atoms: _2152  and  _2155
REMARK  637  A    between atoms: _2155  and  _2156
REMARK  638  A    between atoms: _2156  and  _2157
REMARK  639  A    between atoms: _2157  and  _2158
REMARK  640  A    between atoms: _2158  and  _2159
REMARK  641  A    between atoms: _2173  and  _2174
REMARK  642  A    between atoms: _2174  and  _2175
REMARK  643  A    between atoms: _2174  and  _2177
REMARK  644  A    between atoms: _2177  and  _2178
REMARK  645  A    between atoms: _2190  and  _2191
REMARK  646  A    between atoms: _2191  and  _2192
REMARK  647  A    between atoms: _2191  and  _2194
REMARK  648  A    between atoms: _2194  and  _2195
REMARK  649  A    between atoms: _2204  and  _2205
REMARK  650  A    between atoms: _2205  and  _2206
REMARK  651  A    between atoms: _2205  and  _2208
REMARK  652  A    between atoms: _2208  and  _2209
REMARK  653  A    between atoms: _2216  and  _2217
REMARK  654  A    between atoms: _2217  and  _2218
REMARK  655  A    between atoms: _2217  and  _2220
REMARK  656  A    between atoms: _2220  and  _2221
REMARK  657  A    between atoms: _2228  and  _2229
REMARK  658  A    between atoms: _2229  and  _2230
REMARK  659  A    between atoms: _2229  and  _2232
REMARK  660  A    between atoms: _2232  and  _2233
REMARK  661  A    between atoms: _2233  and  _2234
REMARK  662  A    between atoms: _2243  and  _2244
REMARK  663  A    between atoms: _2244  and  _2245
REMARK  664  A    between atoms: _2244  and  _2247
REMARK  665  A    between atoms: _2247  and  _2248
REMARK  666  A    between atoms: _2248  and  _2249
REMARK  667  A    between atoms: _2260  and  _2261
REMARK  668  A    between atoms: _2261  and  _2262
REMARK  669  A    between atoms: _2261  and  _2264
REMARK  670  A    between atoms: _2264  and  _2265
REMARK  671  A    between atoms: _2270  and  _2271
REMARK  672  A    between atoms: _2281  and  _2282
REMARK  673  A    between atoms: _2282  and  _2283
REMARK  674  A    between atoms: _2282  and  _2285
REMARK  675  A    between atoms: _2291  and  _2292
REMARK  676  A    between atoms: _2292  and  _2293
REMARK  677  A    between atoms: _2292  and  _2295
REMARK  678  A    between atoms: _2295  and  _2296
REMARK  679  A    between atoms: _2315  and  _2316
REMARK  680  A    between atoms: _2316  and  _2317
REMARK  681  A    between atoms: _2316  and  _2319
REMARK  682  A    between atoms: _2319  and  _2320
REMARK  683  A    between atoms: _2320  and  _2321
REMARK  684  A    between atoms: _2330  and  _2331
REMARK  685  A    between atoms: _2331  and  _2332
REMARK  686  A    between atoms: _2331  and  _2334
REMARK  687  A    between atoms: _2334  and  _2335
REMARK  688  A    between atoms: _2341  and  _2342
REMARK  689  A    between atoms: _2342  and  _2343
REMARK  690  A    between atoms: _2342  and  _2345
REMARK  691  A    between atoms: _2345  and  _2346
REMARK  692  A    between atoms: _2352  and  _2353
REMARK  693  A    between atoms: _2353  and  _2354
REMARK  694  A    between atoms: _2353  and  _2356
REMARK  695  A    between atoms: _2362  and  _2363
REMARK  696  A    between atoms: _2363  and  _2364
REMARK  697  A    between atoms: _2369  and  _2370
REMARK  698  A    between atoms: _2370  and  _2371
REMARK  699  A    between atoms: _2376  and  _2377
REMARK  700  A    between atoms: _2377  and  _2378
REMARK  701  A    between atoms: _2377  and  _2380
REMARK  702  A    between atoms: _2380  and  _2381
REMARK  703  A    between atoms: _2387  and  _2388
REMARK  704  A    between atoms: _2388  and  _2389
REMARK  705  A    between atoms: _2388  and  _2391
REMARK  706  A    between atoms: _2391  and  _2392
REMARK  707  A    between atoms: _2407  and  _2408
REMARK  708  A    between atoms: _2408  and  _2409
REMARK  709  A    between atoms: _2408  and  _2411
REMARK  710  A    between atoms: _2411  and  _2412
REMARK  711  A    between atoms: _2411  and  _2413
REMARK  712  A    between atoms: _2421  and  _2422
REMARK  713  A    between atoms: _2422  and  _2423
REMARK  714  A    between atoms: _2422  and  _2425
REMARK  715  A    between atoms: _2425  and  _2426
REMARK  716  A    between atoms: _2425  and  _2427
REMARK  717  A    between atoms: _2437  and  _2438
REMARK  718  A    between atoms: _2438  and  _2439
REMARK  719  A    between atoms: _2438  and  _2441
REMARK  720  A    between atoms: _2441  and  _2442
REMARK  721  A    between atoms: _2442  and  _2443
REMARK  722  A    between atoms: _2443  and  _2444
REMARK  723  A    between atoms: _2461  and  _2462
REMARK  724  A    between atoms: _2462  and  _2463
REMARK  725  A    between atoms: _2462  and  _2465
REMARK  726  A    between atoms: _2465  and  _2466
REMARK  727  A    between atoms: _2465  and  _2467
REMARK  728  A    between atoms: _2475  and  _2476
REMARK  729  A    between atoms: _2476  and  _2477
REMARK  730  A    between atoms: _2476  and  _2479
REMARK  731  A    between atoms: _2479  and  _2480
REMARK  732  A    between atoms: _2487  and  _2488
REMARK  733  A    between atoms: _2488  and  _2489
REMARK  734  A    between atoms: _2488  and  _2491
REMARK  735  A    between atoms: _2491  and  _2492
REMARK  736  A    between atoms: _2491  and  _2493
REMARK  737  A    between atoms: _2501  and  _2502
REMARK  738  A    between atoms: _2502  and  _2503
REMARK  739  A    between atoms: _2508  and  _2509
REMARK  740  A    between atoms: _2509  and  _2510
REMARK  741  A    between atoms: _2509  and  _2512
REMARK  742  A    between atoms: _2512  and  _2513
REMARK  743  A    between atoms: _2513  and  _2514
REMARK  744  A    between atoms: _2524  and  _2525
REMARK  745  A    between atoms: _2537  and  _2538
REMARK  746  A    between atoms: _2538  and  _2539
REMARK  747  A    between atoms: _2538  and  _2541
REMARK  748  A    between atoms: _2541  and  _2542
REMARK  749  A    between atoms: _2542  and  _2543
REMARK  750  A    between atoms: _2543  and  _2544
REMARK  751  A    between atoms: _2554  and  _2555
REMARK  752  A    between atoms: _2555  and  _2556
REMARK  753  A    between atoms: _2561  and  _2562
REMARK  754  A    between atoms: _2562  and  _2563
REMARK  755  A    between atoms: _2562  and  _2565
REMARK  756  A    between atoms: _2565  and  _2566
REMARK  757  A    between atoms: _2566  and  _2567
REMARK  758  A    between atoms: _2567  and  _2568
REMARK  759  A    between atoms: _2585  and  _2586
REMARK  760  A    between atoms: _2586  and  _2587
REMARK  761  A    between atoms: _2592  and  _2593
REMARK  762  A    between atoms: _2593  and  _2594
REMARK  763  A    between atoms: _2593  and  _2596
REMARK  764  A    between atoms: _2596  and  _2597
REMARK  765  A    between atoms: _2596  and  _2598
REMARK  766  A    between atoms: _2606  and  _2607
REMARK  767  A    between atoms: _2607  and  _2608
REMARK  768  A    between atoms: _2607  and  _2610
REMARK  769  A    between atoms: _2610  and  _2611
REMARK  770  A    between atoms: _2611  and  _2612
REMARK  771  A    between atoms: _2612  and  _2613
REMARK  772  A    between atoms: _2613  and  _2614
REMARK  773  A    between atoms: _2628  and  _2629
REMARK  774  A    between atoms: _2629  and  _2630
REMARK  775  A    between atoms: _2629  and  _2632
REMARK  776  A    between atoms: _2632  and  _2633
REMARK  777  A    between atoms: _2632  and  _2634
REMARK  778  A    between atoms: _2644  and  _2645
REMARK  779  A    between atoms: _2645  and  _2646
REMARK  780  A    between atoms: _2645  and  _2648
REMARK  781  A    between atoms: _2648  and  _2649
REMARK  782  A    between atoms: _2648  and  _2650
REMARK  783  A    between atoms: _2649  and  _2651
REMARK  784  A    between atoms: _2663  and  _2664
REMARK  785  A    between atoms: _2664  and  _2665
REMARK  786  A    between atoms: _2664  and  _2667
REMARK  787  A    between atoms: _2667  and  _2668
REMARK  788  A    between atoms: _2668  and  _2669
REMARK  789  A    between atoms: _2668  and  _2670
REMARK  790  A    between atoms: _2682  and  _2683
REMARK  791  A    between atoms: _2683  and  _2684
REMARK  792  A    between atoms: _2683  and  _2686
REMARK  793  A    between atoms: _2686  and  _2687
REMARK  794  A    between atoms: _2699  and  _2700
REMARK  795  A    between atoms: _2700  and  _2701
REMARK  796  A    between atoms: _2700  and  _2703
REMARK  797  A    between atoms: _2703  and  _2704
REMARK  798  A    between atoms: _2704  and  _2705
REMARK  799  A    between atoms: _2704  and  _2706
REMARK  800  A    between atoms: _2718  and  _2719
REMARK  801  A    between atoms: _2719  and  _2720
REMARK  802  A    between atoms: _2719  and  _2722
REMARK  803  A    between atoms: _2722  and  _2723
REMARK  804  A    between atoms: _2723  and  _2724
REMARK  805  A    between atoms: _2724  and  _2725
REMARK  806  A    between atoms: _2725  and  _2726
REMARK  807  A    between atoms: _2740  and  _2741
REMARK  808  A    between atoms: _2741  and  _2742
REMARK  809  A    between atoms: _2741  and  _2744
REMARK  810  A    between atoms: _2744  and  _2745
REMARK  811  A    between atoms: _2745  and  _2746
REMARK  812  A    between atoms: _2755  and  _2756
REMARK  813  A    between atoms: _2756  and  _2757
REMARK  814  A    between atoms: _2756  and  _2759
REMARK  815  A    between atoms: _2759  and  _2760
REMARK  816  A    between atoms: _2767  and  _2768
REMARK  817  A    between atoms: _2768  and  _2769
REMARK  818  A    between atoms: _2768  and  _2771
REMARK  819  A    between atoms: _2771  and  _2772
REMARK  820  A    between atoms: _2772  and  _2773
REMARK  821  A    between atoms: _2784  and  _2785
REMARK  822  A    between atoms: _2785  and  _2786
REMARK  823  A    between atoms: _2785  and  _2788
REMARK  824  A    between atoms: _2788  and  _2789
REMARK  825  A    between atoms: _2788  and  _2790
REMARK  826  A    between atoms: _2798  and  _2799
REMARK  827  A    between atoms: _2799  and  _2800
REMARK  828  A    between atoms: _2799  and  _2802
REMARK  829  A    between atoms: _2802  and  _2803
REMARK  830  A    between atoms: _2803  and  _2804
REMARK  831  A    between atoms: _2813  and  _2814
REMARK  832  A    between atoms: _2814  and  _2815
REMARK  833  A    between atoms: _2814  and  _2817
REMARK  834  A    between atoms: _2817  and  _2818
REMARK  835  A    between atoms: _2823  and  _2824
REMARK  836  A    between atoms: _2834  and  _2835
REMARK  837  A    between atoms: _2835  and  _2838
REMARK  838  A    between atoms: _2838  and  _2839
REMARK  839  A    between atoms: _2839  and  _2840
REMARK  840  A    between atoms: _2839  and  _2841
REMARK  841  A    between atoms: _2884  and  _2885
REMARK  842  A    between atoms: _2884  and  _2887
REMARK  843  A    between atoms: _2887  and  _2888
REMARK  844  A    between atoms: _2888  and  _2889
REMARK  845  A    between atoms: _2899  and  _2900
REMARK  846  A    between atoms: _2900  and  _2901
REMARK  847  A    between atoms: _2900  and  _2903
REMARK  848  A    between atoms: _2903  and  _2904
REMARK  849  A    between atoms: _2904  and  _2905
REMARK  850  A    between atoms: _2905  and  _2906
REMARK  851  A    between atoms: _2923  and  _2924
REMARK  852  A    between atoms: _2924  and  _2925
REMARK  853  A    between atoms: _2924  and  _2927
REMARK  854  A    between atoms: _2927  and  _2928
REMARK  855  A    between atoms: _2928  and  _2929
REMARK  856  A    between atoms: _2929  and  _2930
REMARK  857  A    between atoms: _2947  and  _2948
REMARK  858  A    between atoms: _2948  and  _2949
REMARK  859  A    between atoms: _2948  and  _2951
REMARK  860  A    between atoms: _2951  and  _2952
REMARK  861  A    between atoms: _2951  and  _2953
REMARK  862  A    between atoms: _2952  and  _2954
REMARK  863  A    between atoms: _2966  and  _2967
REMARK  864  A    between atoms: _2967  and  _2968
REMARK  865  A    between atoms: _2967  and  _2970
REMARK  866  A    between atoms: _2970  and  _2971
REMARK  867  A    between atoms: _2971  and  _2972
REMARK  868  A    between atoms: _2972  and  _2973
REMARK  869  A    between atoms: _2973  and  _2974
REMARK  870  A    between atoms: _2988  and  _2989
REMARK  871  A    between atoms: _2989  and  _2990
REMARK  872  A    between atoms: _2989  and  _2992
REMARK  873  A    between atoms: _2992  and  _2993
REMARK  874  A    between atoms: _2993  and  _2994
REMARK  875  A    between atoms: _3003  and  _3004
REMARK  876  A    between atoms: _3004  and  _3005
REMARK  877  A    between atoms: _3004  and  _3007
REMARK  878  A    between atoms: _3007  and  _3008
REMARK  879  A    between atoms: _3007  and  _3009
REMARK  880  A    between atoms: _3008  and  _3010
REMARK  881  A    between atoms: _3022  and  _3023
REMARK  882  A    between atoms: _3023  and  _3024
REMARK  883  A    between atoms: _3023  and  _3026
REMARK  884  A    between atoms: _3026  and  _3027
REMARK  885  A    between atoms: _3026  and  _3028
REMARK  886  A    between atoms: _3038  and  _3039
REMARK  887  A    between atoms: _3039  and  _3040
REMARK  888  A    between atoms: _3039  and  _3042
REMARK  889  A    between atoms: _3042  and  _3043
REMARK  890  A    between atoms: _3043  and  _3044
REMARK  891  A    between atoms: _3044  and  _3045
REMARK  892  A    between atoms: _3045  and  _3046
REMARK  893  A    between atoms: _3060  and  _3061
REMARK  894  A    between atoms: _3061  and  _3062
REMARK  895  A    between atoms: _3061  and  _3064
REMARK  896  A    between atoms: _3064  and  _3065
REMARK  897  A    between atoms: _3065  and  _3066
REMARK  898  A    between atoms: _3066  and  _3067
REMARK  899  A    between atoms: _3067  and  _3068
REMARK  900  A    between atoms: _3082  and  _3083
REMARK  901  A    between atoms: _3083  and  _3084
REMARK  902  A    between atoms: _3083  and  _3086
REMARK  903  A    between atoms: _3086  and  _3087
REMARK  904  A    between atoms: _3099  and  _3100
REMARK  905  A    between atoms: _3100  and  _3101
REMARK  906  A    between atoms: _3100  and  _3103
REMARK  907  A    between atoms: _3103  and  _3104
REMARK  908  A    between atoms: _3110  and  _3111
REMARK  909  A    between atoms: _3111  and  _3112
REMARK  910  A    between atoms: _3111  and  _3114
REMARK  911  A    between atoms: _3114  and  _3115
REMARK  912  A    between atoms: _3115  and  _3116
REMARK  913  A    between atoms: _3127  and  _3128
REMARK  914  A    between atoms: _3128  and  _3129
REMARK  915  A    between atoms: _3128  and  _3131
REMARK  916  A    between atoms: _3131  and  _3132
REMARK  917  A    between atoms: _3147  and  _3148
REMARK  918  A    between atoms: _3148  and  _3149
REMARK  919  A    between atoms: _3148  and  _3151
REMARK  920  A    between atoms: _3151  and  _3152
REMARK  921  A    between atoms: _3151  and  _3153
REMARK  922  A    between atoms: _3152  and  _3154
REMARK  923  A    between atoms: _3166  and  _3167
REMARK  924  A    between atoms: _3167  and  _3168
REMARK  925  A    between atoms: _3173  and  _3174
REMARK  926  A    between atoms: _3174  and  _3175
REMARK  927  A    between atoms: _3174  and  _3177
REMARK  928  A    between atoms: _3177  and  _3178
REMARK  929  A    between atoms: _3183  and  _3184
REMARK  930  A    between atoms: _3195  and  _3196
REMARK  931  A    between atoms: _3208  and  _3209
REMARK  932  A    between atoms: _3209  and  _3210
REMARK  933  A    between atoms: _3209  and  _3212
REMARK  934  A    between atoms: _3212  and  _3213
REMARK  935  A    between atoms: _3212  and  _3214
REMARK  936  A    between atoms: _3213  and  _3215
REMARK  937  A    between atoms: _3227  and  _3228
REMARK  938  A    between atoms: _3228  and  _3229
REMARK  939  A    between atoms: _3228  and  _3231
REMARK  940  A    between atoms: _3231  and  _3232
REMARK  941  A    between atoms: _3231  and  _3233
REMARK  942  A    between atoms: _3241  and  _3242
REMARK  943  A    between atoms: _3242  and  _3243
REMARK  944  A    between atoms: _3242  and  _3245
REMARK  945  A    between atoms: _3245  and  _3246
REMARK  946  A    between atoms: _3246  and  _3247
REMARK  947  A    between atoms: _3246  and  _3248
REMARK  948  A    between atoms: _3260  and  _3261
REMARK  949  A    between atoms: _3261  and  _3262
REMARK  950  A    between atoms: _3261  and  _3264
REMARK  951  A    between atoms: _3264  and  _3265
REMARK  952  A    between atoms: _3280  and  _3281
REMARK  953  A    between atoms: _3281  and  _3282
REMARK  954  A    between atoms: _3281  and  _3284
REMARK  955  A    between atoms: _3284  and  _3285
REMARK  956  A    between atoms: _3284  and  _3286
REMARK  957  A    between atoms: _3296  and  _3297
REMARK  958  A    between atoms: _3297  and  _3298
REMARK  959  A    between atoms: _3297  and  _3300
REMARK  960  A    between atoms: _3300  and  _3301
REMARK  961  A    between atoms: _3301  and  _3302
REMARK                            x       y       z     vdW  Elec       q    Type
REMARK                         _______ _______ _______ _____ _____    ______ ____
ROOT
ATOM      1  C   UNL     1      -9.578  20.018  41.127  0.00  0.00    +0.000 C 
ENDROOT
TORSDOF 0
REMARK  Name = /Users/mlugowska/PhD/ML_residence_time_prediction/protein_files/5J20_protein.pdb
REMARK  961 active torsions:
REMARK  status: ('A' for Active; 'I' for Inactive)
REMARK    1  A    between atoms: _2  and  _3
REMARK    2  A    between atoms: _2  and  _5
REMARK    3  A    between atoms: _10  and  _11
REMARK    4  A    between atoms: _11  and  _12
REMARK    5  A    between atoms: _11  and  _14
REMARK    6  A    between atoms: _14  and  _15
REMARK    7  A    between atoms: _14  and  _16
REMARK    8  A    between atoms: _26  and  _27
REMARK    9  A    between atoms: _27  and  _28
REMARK   10  A    between atoms: _27  and  _30
REMARK   11  A    between atoms: _30  and  _31
REMARK   12  A    between atoms: _31  and  _32
REMARK   13  A    between atoms: _41  and  _42
REMARK   14  A    between atoms: _42  and  _43
REMARK   15  A    between atoms: _42  and  _45
REMARK   16  A    between atoms: _45  and  _46
REMARK   17  A    between atoms: _45  and  _47
REMARK   18  A    between atoms: _55  and  _56
REMARK   19  A    between atoms: _56  and  _57
REMARK   20  A    between atoms: _56  and  _59
REMARK   21  A    between atoms: _59  and  _60
REMARK   22  A    between atoms: _75  and  _76
REMARK   23  A    between atoms: _76  and  _77
REMARK   24  A    between atoms: _76  and  _79
REMARK   25  A    between atoms: _85  and  _86
REMARK   26  A    between atoms: _86  and  _87
REMARK   27  A    between atoms: _86  and  _89
REMARK   28  A    between atoms: _89  and  _90
REMARK   29  A    between atoms: _105  and  _106
REMARK   30  A    between atoms: _106  and  _107
REMARK   31  A    between atoms: _106  and  _109
REMARK   32  A    between atoms: _109  and  _110
REMARK   33  A    between atoms: _110  and  _111
REMARK   34  A    between atoms: _122  and  _123
REMARK   35  A    between atoms: _123  and  _124
REMARK   36  A    between atoms: _123  and  _126
REMARK   37  A    between atoms: _132  and  _133
REMARK   38  A    between atoms: _133  and  _134
REMARK   39  A    between atoms: _133  and  _136
REMARK   40  A    between atoms: _136  and  _137
REMARK   41  A    between atoms: _137  and  _138
REMARK   42  A    between atoms: _147  and  _148
REMARK   43  A    between atoms: _148  and  _149
REMARK   44  A    between atoms: _148  and  _151
REMARK   45  A    between atoms: _151  and  _152
REMARK   46  A    between atoms: _151  and  _153
REMARK   47  A    between atoms: _152  and  _154
REMARK   48  A    between atoms: _166  and  _167
REMARK   49  A    between atoms: _167  and  _168
REMARK   50  A    between atoms: _167  and  _170
REMARK   51  A    between atoms: _176  and  _177
REMARK   52  A    between atoms: _177  and  _178
REMARK   53  A    between atoms: _177  and  _180
REMARK   54  A    between atoms: _180  and  _181
REMARK   55  A    between atoms: _181  and  _182
REMARK   56  A    between atoms: _193  and  _194
REMARK   57  A    between atoms: _194  and  _195
REMARK   58  A    between atoms: _194  and  _197
REMARK   59  A    between atoms: _197  and  _198
REMARK   60  A    between atoms: _198  and  _199
REMARK   61  A    between atoms: _198  and  _200
REMARK   62  A    between atoms: _212  and  _213
REMARK   63  A    between atoms: _213  and  _214
REMARK   64  A    between atoms: _213  and  _216
REMARK   65  A    between atoms: _216  and  _217
REMARK   66  A    between atoms: _217  and  _218
REMARK   67  A    between atoms: _218  and  _219
REMARK   68  A    between atoms: _229  and  _230
REMARK   69  A    between atoms: _230  and  _231
REMARK   70  A    between atoms: _230  and  _233
REMARK   71  A    between atoms: _233  and  _234
REMARK   72  A    between atoms: _240  and  _241
REMARK   73  A    between atoms: _241  and  _242
REMARK   74  A    between atoms: _241  and  _244
REMARK   75  A    between atoms: _244  and  _245
REMARK   76  A    between atoms: _245  and  _246
REMARK   77  A    between atoms: _245  and  _247
REMARK   78  A    between atoms: _259  and  _260
REMARK   79  A    between atoms: _260  and  _261
REMARK   80  A    between atoms: _260  and  _263
REMARK   81  A    between atoms: _263  and  _264
REMARK   82  A    between atoms: _263  and  _265
REMARK   83  A    between atoms: _264  and  _266
REMARK   84  A    between atoms: _278  and  _279
REMARK   85  A    between atoms: _279  and  _280
REMARK   86  A    between atoms: _279  and  _282
REMARK   87  A    between atoms: _282  and  _283
REMARK   88  A    between atoms: _282  and  _284
REMARK   89  A    between atoms: _283  and  _285
REMARK   90  A    between atoms: _297  and  _298
REMARK   91  A    between atoms: _298  and  _299
REMARK   92  A    between atoms: _298  and  _301
REMARK   93  A    between atoms: _301  and  _302
REMARK   94  A    between atoms: _311  and  _312
REMARK   95  A    between atoms: _312  and  _313
REMARK   96  A    between atoms: _312  and  _315
REMARK   97  A    between atoms: _315  and  _316
REMARK   98  A    between atoms: _315  and  _317
REMARK   99  A    between atoms: _325  and  _326
REMARK  100  A    between atoms: _326  and  _327
REMARK  101  A    between atoms: _326  and  _329
REMARK  102  A    between atoms: _329  and  _330
REMARK  103  A    between atoms: _345  and  _346
REMARK  104  A    between atoms: _346  and  _347
REMARK  105  A    between atoms: _346  and  _349
REMARK  106  A    between atoms: _349  and  _350
REMARK  107  A    between atoms: _355  and  _356
REMARK  108  A    between atoms: _366  and  _367
REMARK  109  A    between atoms: _367  and  _368
REMARK  110  A    between atoms: _367  and  _370
REMARK  111  A    between atoms: _370  and  _371
REMARK  112  A    between atoms: _377  and  _378
REMARK  113  A    between atoms: _378  and  _379
REMARK  114  A    between atoms: _378  and  _381
REMARK  115  A    between atoms: _381  and  _382
REMARK  116  A    between atoms: _391  and  _392
REMARK  117  A    between atoms: _392  and  _393
REMARK  118  A    between atoms: _392  and  _395
REMARK  119  A    between atoms: _395  and  _396
REMARK  120  A    between atoms: _396  and  _397
REMARK  121  A    between atoms: _397  and  _398
REMARK  122  A    between atoms: _398  and  _399
REMARK  123  A    between atoms: _413  and  _414
REMARK  124  A    between atoms: _414  and  _415
REMARK  125  A    between atoms: _414  and  _417
REMARK  126  A    between atoms: _417  and  _418
REMARK  127  A    between atoms: _418  and  _419
REMARK  128  A    between atoms: _428  and  _429
REMARK  129  A    between atoms: _429  and  _430
REMARK  130  A    between atoms: _429  and  _432
REMARK  131  A    between atoms: _432  and  _433
REMARK  132  A    between atoms: _432  and  _434
REMARK  133  A    between atoms: _433  and  _435
REMARK  134  A    between atoms: _447  and  _448
REMARK  135  A    between atoms: _448  and  _449
REMARK  136  A    between atoms: _448  and  _451
REMARK  137  A    between atoms: _451  and  _452
REMARK  138  A    between atoms: _467  and  _468
REMARK  139  A    between atoms: _468  and  _469
REMARK  140  A    between atoms: _468  and  _471
REMARK  141  A    between atoms: _471  and  _472
REMARK  142  A    between atoms: _472  and  _473
REMARK  143  A    between atoms: _472  and  _474
REMARK  144  A    between atoms: _486  and  _487
REMARK  145  A    between atoms: _487  and  _488
REMARK  146  A    between atoms: _487  and  _490
REMARK  147  A    between atoms: _490  and  _491
REMARK  148  A    between atoms: _491  and  _492
REMARK  149  A    between atoms: _492  and  _493
REMARK  150  A    between atoms: _510  and  _511
REMARK  151  A    between atoms: _511  and  _512
REMARK  152  A    between atoms: _511  and  _514
REMARK  153  A    between atoms: _514  and  _515
REMARK  154  A    between atoms: _515  and  _516
REMARK  155  A    between atoms: _525  and  _526
REMARK  156  A    between atoms: _526  and  _527
REMARK  157  A    between atoms: _526  and  _529
REMARK  158  A    between atoms: _529  and  _530
REMARK  159  A    between atoms: _530  and  _531
REMARK  160  A    between atoms: _530  and  _532
REMARK  161  A    between atoms: _544  and  _545
REMARK  162  A    between atoms: _545  and  _546
REMARK  163  A    between atoms: _545  and  _548
REMARK  164  A    between atoms: _548  and  _549
REMARK  165  A    between atoms: _548  and  _550
REMARK  166  A    between atoms: _549  and  _551
REMARK  167  A    between atoms: _563  and  _564
REMARK  168  A    between atoms: _564  and  _565
REMARK  169  A    between atoms: _564  and  _567
REMARK  170  A    between atoms: _567  and  _568
REMARK  171  A    between atoms: _574  and  _575
REMARK  172  A    between atoms: _575  and  _576
REMARK  173  A    between atoms: _575  and  _578
REMARK  174  A    between atoms: _578  and  _579
REMARK  175  A    between atoms: _588  and  _589
REMARK  176  A    between atoms: _589  and  _590
REMARK  177  A    between atoms: _589  and  _592
REMARK  178  A    between atoms: _592  and  _593
REMARK  179  A    between atoms: _599  and  _600
REMARK  180  A    between atoms: _600  and  _601
REMARK  181  A    between atoms: _600  and  _603
REMARK  182  A    between atoms: _603  and  _604
REMARK  183  A    between atoms: _610  and  _611
REMARK  184  A    between atoms: _611  and  _612
REMARK  185  A    between atoms: _611  and  _614
REMARK  186  A    between atoms: _614  and  _615
REMARK  187  A    between atoms: _622  and  _623
REMARK  188  A    between atoms: _623  and  _624
REMARK  189  A    between atoms: _623  and  _626
REMARK  190  A    between atoms: _632  and  _633
REMARK  191  A    between atoms: _633  and  _634
REMARK  192  A    between atoms: _633  and  _636
REMARK  193  A    between atoms: _636  and  _637
REMARK  194  A    between atoms: _637  and  _638
REMARK  195  A    between atoms: _637  and  _639
REMARK  196  A    between atoms: _651  and  _652
REMARK  197  A    between atoms: _652  and  _653
REMARK  198  A    between atoms: _652  and  _655
REMARK  199  A    between atoms: _655  and  _656
REMARK  200  A    between atoms: _663  and  _664
REMARK  201  A    between atoms: _664  and  _665
REMARK  202  A    between atoms: _664  and  _667
REMARK  203  A    between atoms: _667  and  _668
REMARK  204  A    between atoms: _668  and  _669
REMARK  205  A    between atoms: _669  and  _670
REMARK  206  A    between atoms: _670  and  _671
REMARK  207  A    between atoms: _685  and  _686
REMARK  208  A    between atoms: _686  and  _687
REMARK  209  A    between atoms: _686  and  _689
REMARK  210  A    between atoms: _689  and  _690
REMARK  211  A    between atoms: _689  and  _691
REMARK  212  A    between atoms: _690  and  _692
REMARK  213  A    between atoms: _704  and  _705
REMARK  214  A    between atoms: _705  and  _706
REMARK  215  A    between atoms: _705  and  _708
REMARK  216  A    between atoms: _708  and  _709
REMARK  217  A    between atoms: _709  and  _710
REMARK  218  A    between atoms: _710  and  _711
REMARK  219  A    between atoms: _728  and  _729
REMARK  220  A    between atoms: _729  and  _730
REMARK  221  A    between atoms: _729  and  _732
REMARK  222  A    between atoms: _732  and  _733
REMARK  223  A    between atoms: _738  and  _739
REMARK  224  A    between atoms: _749  and  _750
REMARK  225  A    between atoms: _750  and  _751
REMARK  226  A    between atoms: _750  and  _753
REMARK  227  A    between atoms: _753  and  _754
REMARK  228  A    between atoms: _754  and  _755
REMARK  229  A    between atoms: _764  and  _765
REMARK  230  A    between atoms: _765  and  _766
REMARK  231  A    between atoms: _765  and  _768
REMARK  232  A    between atoms: _772  and  _773
REMARK  233  A    between atoms: _773  and  _774
REMARK  234  A    between atoms: _773  and  _776
REMARK  235  A    between atoms: _776  and  _777
REMARK  236  A    between atoms: _777  and  _778
REMARK  237  A    between atoms: _777  and  _779
REMARK  238  A    between atoms: _791  and  _792
REMARK  239  A    between atoms: _792  and  _793
REMARK  240  A    between atoms: _792  and  _795
REMARK  241  A    between atoms: _795  and  _796
REMARK  242  A    between atoms: _795  and  _797
REMARK  243  A    between atoms: _805  and  _806
REMARK  244  A    between atoms: _806  and  _807
REMARK  245  A    between atoms: _806  and  _809
REMARK  246  A    between atoms: _809  and  _810
REMARK  247  A    between atoms: _818  and  _819
REMARK  248  A    between atoms: _831  and  _832
REMARK  249  A    between atoms: _832  and  _833
REMARK  250  A    between atoms: _832  and  _835
REMARK  251  A    between atoms: _835  and  _836
REMARK  252  A    between atoms: _842  and  _843
REMARK  253  A    between atoms: _843  and  _844
REMARK  254  A    between atoms: _843  and  _846
REMARK  255  A    between atoms: _846  and  _847
REMARK  256  A    between atoms: _847  and  _848
REMARK  257  A    between atoms: _848  and  _849
REMARK  258  A    between atoms: _849  and  _850
REMARK  259  A    between atoms: _864  and  _865
REMARK  260  A    between atoms: _865  and  _866
REMARK  261  A    between atoms: _865  and  _868
REMARK  262  A    between atoms: _868  and  _869
REMARK  263  A    between atoms: _869  and  _870
REMARK  264  A    between atoms: _869  and  _871
REMARK  265  A    between atoms: _883  and  _884
REMARK  266  A    between atoms: _884  and  _885
REMARK  267  A    between atoms: _884  and  _887
REMARK  268  A    between atoms: _887  and  _888
REMARK  269  A    between atoms: _895  and  _896
REMARK  270  A    between atoms: _896  and  _897
REMARK  271  A    between atoms: _896  and  _899
REMARK  272  A    between atoms: _899  and  _900
REMARK  273  A    between atoms: _906  and  _907
REMARK  274  A    between atoms: _907  and  _908
REMARK  275  A    between atoms: _913  and  _914
REMARK  276  A    between atoms: _914  and  _915
REMARK  277  A    between atoms: _914  and  _917
REMARK  278  A    between atoms: _917  and  _918
REMARK  279  A    between atoms: _918  and  _919
REMARK  280  A    between atoms: _919  and  _920
REMARK  281  A    between atoms: _920  and  _921
REMARK  282  A    between atoms: _935  and  _936
REMARK  283  A    between atoms: _936  and  _937
REMARK  284  A    between atoms: _936  and  _939
REMARK  285  A    between atoms: _939  and  _940
REMARK  286  A    between atoms: _940  and  _941
REMARK  287  A    between atoms: _950  and  _951
REMARK  288  A    between atoms: _951  and  _952
REMARK  289  A    between atoms: _951  and  _954
REMARK  290  A    between atoms: _954  and  _955
REMARK  291  A    between atoms: _955  and  _956
REMARK  292  A    between atoms: _955  and  _957
REMARK  293  A    between atoms: _969  and  _970
REMARK  294  A    between atoms: _970  and  _971
REMARK  295  A    between atoms: _970  and  _973
REMARK  296  A    between atoms: _973  and  _974
REMARK  297  A    between atoms: _986  and  _987
REMARK  298  A    between atoms: _987  and  _988
REMARK  299  A    between atoms: _987  and  _990
REMARK  300  A    between atoms: _990  and  _991
REMARK  301  A    between atoms: _990  and  _992
REMARK  302  A    between atoms: _991  and  _993
REMARK  303  A    between atoms: _1005  and  _1006
REMARK  304  A    between atoms: _1006  and  _1007
REMARK  305  A    between atoms: _1006  and  _1009
REMARK  306  A    between atoms: _1009  and  _1010
REMARK  307  A    between atoms: _1019  and  _1020
REMARK  308  A    between atoms: _1020  and  _1021
REMARK  309  A    between atoms: _1020  and  _1023
REMARK  310  A    between atoms: _1023  and  _1024
REMARK  311  A    between atoms: _1024  and  _1025
REMARK  312  A    between atoms: _1024  and  _1026
REMARK  313  A    between atoms: _1038  and  _1039
REMARK  314  A    between atoms: _1039  and  _1040
REMARK  315  A    between atoms: _1039  and  _1042
REMARK  316  A    between atoms: _1042  and  _1043
REMARK  317  A    between atoms: _1042  and  _1044
REMARK  318  A    between atoms: _1043  and  _1045
REMARK  319  A    between atoms: _1058  and  _1059
REMARK  320  A    between atoms: _1071  and  _1072
REMARK  321  A    between atoms: _1072  and  _1073
REMARK  322  A    between atoms: _1072  and  _1075
REMARK  323  A    between atoms: _1075  and  _1076
REMARK  324  A    between atoms: _1085  and  _1086
REMARK  325  A    between atoms: _1086  and  _1087
REMARK  326  A    between atoms: _1086  and  _1089
REMARK  327  A    between atoms: _1089  and  _1090
REMARK  328  A    between atoms: _1090  and  _1091
REMARK  329  A    between atoms: _1091  and  _1092
REMARK  330  A    between atoms: _1092  and  _1093
REMARK  331  A    between atoms: _1107  and  _1108
REMARK  332  A    between atoms: _1108  and  _1109
REMARK  333  A    between atoms: _1108  and  _1111
REMARK  334  A    between atoms: _1111  and  _1112
REMARK  335  A    between atoms: _1112  and  _1113
REMARK  336  A    between atoms: _1124  and  _1125
REMARK  337  A    between atoms: _1125  and  _1126
REMARK  338  A    between atoms: _1125  and  _1128
REMARK  339  A    between atoms: _1128  and  _1129
REMARK  340  A    between atoms: _1136  and  _1137
REMARK  341  A    between atoms: _1137  and  _1138
REMARK  342  A    between atoms: _1137  and  _1140
REMARK  343  A    between atoms: _1140  and  _1141
REMARK  344  A    between atoms: _1141  and  _1142
REMARK  345  A    between atoms: _1142  and  _1143
REMARK  346  A    between atoms: _1160  and  _1161
REMARK  347  A    between atoms: _1161  and  _1162
REMARK  348  A    between atoms: _1161  and  _1164
REMARK  349  A    between atoms: _1164  and  _1165
REMARK  350  A    between atoms: _1164  and  _1166
REMARK  351  A    between atoms: _1174  and  _1175
REMARK  352  A    between atoms: _1175  and  _1176
REMARK  353  A    between atoms: _1175  and  _1178
REMARK  354  A    between atoms: _1178  and  _1179
REMARK  355  A    between atoms: _1179  and  _1180
REMARK  356  A    between atoms: _1179  and  _1181
REMARK  357  A    between atoms: _1193  and  _1194
REMARK  358  A    between atoms: _1194  and  _1195
REMARK  359  A    between atoms: _1194  and  _1197
REMARK  360  A    between atoms: _1197  and  _1198
REMARK  361  A    between atoms: _1197  and  _1199
REMARK  362  A    between atoms: _1207  and  _1208
REMARK  363  A    between atoms: _1208  and  _1209
REMARK  364  A    between atoms: _1208  and  _1211
REMARK  365  A    between atoms: _1211  and  _1212
REMARK  366  A    between atoms: _1211  and  _1213
REMARK  367  A    between atoms: _1212  and  _1214
REMARK  368  A    between atoms: _1226  and  _1227
REMARK  369  A    between atoms: _1227  and  _1228
REMARK  370  A    between atoms: _1227  and  _1230
REMARK  371  A    between atoms: _1230  and  _1231
REMARK  372  A    between atoms: _1230  and  _1232
REMARK  373  A    between atoms: _1242  and  _1243
REMARK  374  A    between atoms: _1243  and  _1244
REMARK  375  A    between atoms: _1243  and  _1246
REMARK  376  A    between atoms: _1246  and  _1247
REMARK  377  A    between atoms: _1254  and  _1255
REMARK  378  A    between atoms: _1255  and  _1256
REMARK  379  A    between atoms: _1255  and  _1258
REMARK  380  A    between atoms: _1258  and  _1259
REMARK  381  A    between atoms: _1258  and  _1260
REMARK  382  A    between atoms: _1268  and  _1269
REMARK  383  A    between atoms: _1269  and  _1270
REMARK  384  A    between atoms: _1275  and  _1276
REMARK  385  A    between atoms: _1276  and  _1277
REMARK  386  A    between atoms: _1276  and  _1279
REMARK  387  A    between atoms: _1279  and  _1280
REMARK  388  A    between atoms: _1279  and  _1281
REMARK  389  A    between atoms: _1280  and  _1282
REMARK  390  A    between atoms: _1294  and  _1295
REMARK  391  A    between atoms: _1295  and  _1296
REMARK  392  A    between atoms: _1301  and  _1302
REMARK  393  A    between atoms: _1302  and  _1303
REMARK  394  A    between atoms: _1302  and  _1305
REMARK  395  A    between atoms: _1305  and  _1306
REMARK  396  A    between atoms: _1306  and  _1307
REMARK  397  A    between atoms: _1307  and  _1308
REMARK  398  A    between atoms: _1318  and  _1319
REMARK  399  A    between atoms: _1319  and  _1320
REMARK  400  A    between atoms: _1319  and  _1322
REMARK  401  A    between atoms: _1322  and  _1323
REMARK  402  A    between atoms: _1322  and  _1324
REMARK  403  A    between atoms: _1332  and  _1333
REMARK  404  A    between atoms: _1333  and  _1334
REMARK  405  A    between atoms: _1333  and  _1336
REMARK  406  A    between atoms: _1336  and  _1337
REMARK  407  A    between atoms: _1337  and  _1338
REMARK  408  A    between atoms: _1338  and  _1339
REMARK  409  A    between atoms: _1339  and  _1340
REMARK  410  A    between atoms: _1354  and  _1355
REMARK  411  A    between atoms: _1355  and  _1356
REMARK  412  A    between atoms: _1355  and  _1358
REMARK  413  A    between atoms: _1364  and  _1365
REMARK  414  A    between atoms: _1365  and  _1366
REMARK  415  A    between atoms: _1365  and  _1368
REMARK  416  A    between atoms: _1368  and  _1369
REMARK  417  A    between atoms: _1376  and  _1377
REMARK  418  A    between atoms: _1377  and  _1378
REMARK  419  A    between atoms: _1377  and  _1380
REMARK  420  A    between atoms: _1380  and  _1381
REMARK  421  A    between atoms: _1381  and  _1382
REMARK  422  A    between atoms: _1381  and  _1383
REMARK  423  A    between atoms: _1395  and  _1396
REMARK  424  A    between atoms: _1396  and  _1399
REMARK  425  A    between atoms: _1399  and  _1400
REMARK  426  A    between atoms: _1399  and  _1401
REMARK  427  A    between atoms: _1400  and  _1402
REMARK  428  A    between atoms: _1422  and  _1425
REMARK  429  A    between atoms: _1424  and  _1428
REMARK  430  A    between atoms: _1425  and  _1427
REMARK  431  A    between atoms: _1443  and  _1444
REMARK  432  A    between atoms: _1443  and  _1446
REMARK  433  A    between atoms: _1446  and  _1447
REMARK  434  A    between atoms: _1457  and  _1458
REMARK  435  A    between atoms: _1458  and  _1459
REMARK  436  A    between atoms: _1458  and  _1461
REMARK  437  A    between atoms: _1461  and  _1462
REMARK  438  A    between atoms: _1462  and  _1463
REMARK  439  A    between atoms: _1462  and  _1464
REMARK  440  A    between atoms: _1476  and  _1477
REMARK  441  A    between atoms: _1477  and  _1478
REMARK  442  A    between atoms: _1483  and  _1484
REMARK  443  A    between atoms: _1484  and  _1485
REMARK  444  A    between atoms: _1484  and  _1487
REMARK  445  A    between atoms: _1487  and  _1488
REMARK  446  A    between atoms: _1487  and  _1489
REMARK  447  A    between atoms: _1497  and  _1498
REMARK  448  A    between atoms: _1498  and  _1499
REMARK  449  A    between atoms: _1498  and  _1501
REMARK  450  A    between atoms: _1501  and  _1502
REMARK  451  A    between atoms: _1501  and  _1503
REMARK  452  A    between atoms: _1502  and  _1504
REMARK  453  A    between atoms: _1516  and  _1517
REMARK  454  A    between atoms: _1517  and  _1518
REMARK  455  A    between atoms: _1517  and  _1520
REMARK  456  A    between atoms: _1526  and  _1527
REMARK  457  A    between atoms: _1527  and  _1528
REMARK  458  A    between atoms: _1527  and  _1530
REMARK  459  A    between atoms: _1530  and  _1531
REMARK  460  A    between atoms: _1531  and  _1532
REMARK  461  A    between atoms: _1532  and  _1533
REMARK  462  A    between atoms: _1533  and  _1534
REMARK  463  A    between atoms: _1548  and  _1549
REMARK  464  A    between atoms: _1549  and  _1550
REMARK  465  A    between atoms: _1549  and  _1552
REMARK  466  A    between atoms: _1552  and  _1553
REMARK  467  A    between atoms: _1559  and  _1560
REMARK  468  A    between atoms: _1560  and  _1561
REMARK  469  A    between atoms: _1566  and  _1567
REMARK  470  A    between atoms: _1567  and  _1568
REMARK  471  A    between atoms: _1567  and  _1570
REMARK  472  A    between atoms: _1570  and  _1571
REMARK  473  A    between atoms: _1570  and  _1572
REMARK  474  A    between atoms: _1580  and  _1581
REMARK  475  A    between atoms: _1581  and  _1582
REMARK  476  A    between atoms: _1581  and  _1584
REMARK  477  A    between atoms: _1584  and  _1585
REMARK  478  A    between atoms: _1585  and  _1586
REMARK  479  A    between atoms: _1586  and  _1587
REMARK  480  A    between atoms: _1587  and  _1588
REMARK  481  A    between atoms: _1602  and  _1603
REMARK  482  A    between atoms: _1603  and  _1604
REMARK  483  A    between atoms: _1603  and  _1606
REMARK  484  A    between atoms: _1612  and  _1613
REMARK  485  A    between atoms: _1613  and  _1614
REMARK  486  A    between atoms: _1613  and  _1616
REMARK  487  A    between atoms: _1616  and  _1617
REMARK  488  A    between atoms: _1632  and  _1633
REMARK  489  A    between atoms: _1633  and  _1634
REMARK  490  A    between atoms: _1633  and  _1636
REMARK  491  A    between atoms: _1636  and  _1637
REMARK  492  A    between atoms: _1637  and  _1638
REMARK  493  A    between atoms: _1638  and  _1639
REMARK  494  A    between atoms: _1649  and  _1650
REMARK  495  A    between atoms: _1650  and  _1651
REMARK  496  A    between atoms: _1650  and  _1653
REMARK  497  A    between atoms: _1653  and  _1654
REMARK  498  A    between atoms: _1654  and  _1655
REMARK  499  A    between atoms: _1664  and  _1665
REMARK  500  A    between atoms: _1665  and  _1666
REMARK  501  A    between atoms: _1665  and  _1668
REMARK  502  A    between atoms: _1674  and  _1675
REMARK  503  A    between atoms: _1675  and  _1676
REMARK  504  A    between atoms: _1675  and  _1678
REMARK  505  A    between atoms: _1678  and  _1679
REMARK  506  A    between atoms: _1679  and  _1680
REMARK  507  A    between atoms: _1679  and  _1681
REMARK  508  A    between atoms: _1693  and  _1694
REMARK  509  A    between atoms: _1694  and  _1695
REMARK  510  A    between atoms: _1694  and  _1697
REMARK  511  A    between atoms: _1697  and  _1698
REMARK  512  A    between atoms: _1698  and  _1699
REMARK  513  A    between atoms: _1710  and  _1711
REMARK  514  A    between atoms: _1711  and  _1712
REMARK  515  A    between atoms: _1711  and  _1714
REMARK  516  A    between atoms: _1720  and  _1721
REMARK  517  A    between atoms: _1721  and  _1722
REMARK  518  A    between atoms: _1727  and  _1728
REMARK  519  A    between atoms: _1728  and  _1729
REMARK  520  A    between atoms: _1728  and  _1731
REMARK  521  A    between atoms: _1737  and  _1738
REMARK  522  A    between atoms: _1738  and  _1739
REMARK  523  A    between atoms: _1738  and  _1741
REMARK  524  A    between atoms: _1741  and  _1742
REMARK  525  A    between atoms: _1749  and  _1750
REMARK  526  A    between atoms: _1750  and  _1751
REMARK  527  A    between atoms: _1750  and  _1753
REMARK  528  A    between atoms: _1753  and  _1754
REMARK  529  A    between atoms: _1753  and  _1755
REMARK  530  A    between atoms: _1754  and  _1756
REMARK  531  A    between atoms: _1768  and  _1769
REMARK  532  A    between atoms: _1769  and  _1772
REMARK  533  A    between atoms: _1772  and  _1773
REMARK  534  A    between atoms: _1791  and  _1793
REMARK  535  A    between atoms: _1792  and  _1794
REMARK  536  A    between atoms: _1814  and  _1815
REMARK  537  A    between atoms: _1814  and  _1817
REMARK  538  A    between atoms: _1817  and  _1818
REMARK  539  A    between atoms: _1817  and  _1819
REMARK  540  A    between atoms: _1818  and  _1820
REMARK  541  A    between atoms: _1833  and  _1834
REMARK  542  A    between atoms: _1834  and  _1835
REMARK  543  A    between atoms: _1840  and  _1841
REMARK  544  A    between atoms: _1841  and  _1842
REMARK  545  A    between atoms: _1841  and  _1844
REMARK  546  A    between atoms: _1844  and  _1845
REMARK  547  A    between atoms: _1845  and  _1846
REMARK  548  A    between atoms: _1857  and  _1858
REMARK  549  A    between atoms: _1858  and  _1859
REMARK  550  A    between atoms: _1858  and  _1861
REMARK  551  A    between atoms: _1861  and  _1862
REMARK  552  A    between atoms: _1877  and  _1878
REMARK  553  A    between atoms: _1878  and  _1879
REMARK  554  A    between atoms: _1884  and  _1885
REMARK  555  A    between atoms: _1885  and  _1886
REMARK  556  A    between atoms: _1885  and  _1888
REMARK  557  A    between atoms: _1888  and  _1889
REMARK  558  A    between atoms: _1888  and  _1890
REMARK  559  A    between atoms: _1900  and  _1901
REMARK  560  A    between atoms: _1901  and  _1902
REMARK  561  A    between atoms: _1907  and  _1908
REMARK  562  A    between atoms: _1908  and  _1909
REMARK  563  A    between atoms: _1908  and  _1911
REMARK  564  A    between atoms: _1911  and  _1912
REMARK  565  A    between atoms: _1927  and  _1928
REMARK  566  A    between atoms: _1928  and  _1929
REMARK  567  A    between atoms: _1928  and  _1931
REMARK  568  A    between atoms: _1931  and  _1932
REMARK  569  A    between atoms: _1937  and  _1938
REMARK  570  A    between atoms: _1948  and  _1949
REMARK  571  A    between atoms: _1949  and  _1950
REMARK  572  A    between atoms: _1949  and  _1952
REMARK  573  A    between atoms: _1952  and  _1953
REMARK  574  A    between atoms: _1959  and  _1960
REMARK  575  A    between atoms: _1960  and  _1961
REMARK  576  A    between atoms: _1960  and  _1963
REMARK  577  A    between atoms: _1969  and  _1970
REMARK  578  A    between atoms: _1970  and  _1971
REMARK  579  A    between atoms: _1970  and  _1973
REMARK  580  A    between atoms: _1973  and  _1974
REMARK  581  A    between atoms: _1979  and  _1980
REMARK  582  A    between atoms: _1990  and  _1991
REMARK  583  A    between atoms: _1991  and  _1992
REMARK  584  A    between atoms: _1991  and  _1994
REMARK  585  A    between atoms: _1994  and  _1995
REMARK  586  A    between atoms: _1995  and  _1996
REMARK  587  A    between atoms: _1995  and  _1997
REMARK  588  A    between atoms: _2009  and  _2010
REMARK  589  A    between atoms: _2010  and  _2011
REMARK  590  A    between atoms: _2010  and  _2013
REMARK  591  A    between atoms: _2013  and  _2014
REMARK  592  A    between atoms: _2013  and  _2015
REMARK  593  A    between atoms: _2025  and  _2026
REMARK  594  A    between atoms: _2026  and  _2027
REMARK  595  A    between atoms: _2026  and  _2029
REMARK  596  A    between atoms: _2035  and  _2036
REMARK  597  A    between atoms: _2036  and  _2037
REMARK  598  A    between atoms: _2036  and  _2039
REMARK  599  A    between atoms: _2039  and  _2040
REMARK  600  A    between atoms: _2040  and  _2041
REMARK  601  A    between atoms: _2050  and  _2051
REMARK  602  A    between atoms: _2051  and  _2052
REMARK  603  A    between atoms: _2051  and  _2054
REMARK  604  A    between atoms: _2054  and  _2055
REMARK  605  A    between atoms: _2055  and  _2056
REMARK  606  A    between atoms: _2056  and  _2057
REMARK  607  A    between atoms: _2057  and  _2058
REMARK  608  A    between atoms: _2072  and  _2073
REMARK  609  A    between atoms: _2073  and  _2074
REMARK  610  A    between atoms: _2073  and  _2076
REMARK  611  A    between atoms: _2076  and  _2077
REMARK  612  A    between atoms: _2076  and  _2078
REMARK  613  A    between atoms: _2088  and  _2089
REMARK  614  A    between atoms: _2089  and  _2090
REMARK  615  A    between atoms: _2089  and  _2092
REMARK  616  A    between atoms: _2092  and  _2093
REMARK  617  A    between atoms: _2092  and  _2094
REMARK  618  A    between atoms: _2102  and  _2103
REMARK  619  A    between atoms: _2103  and  _2104
REMARK  620  A    between atoms: _2103  and  _2106
REMARK  621  A    between atoms: _2106  and  _2107
REMARK  622  A    between atoms: _2106  and  _2108
REMARK  623  A    between atoms: _2118  and  _2119
REMARK  624  A    between atoms: _2119  and  _2120
REMARK  625  A    between atoms: _2119  and  _2122
REMARK  626  A    between atoms: _2122  and  _2123
REMARK  627  A    between atoms: _2122  and  _2124
REMARK  628  A    between atoms: _2123  and  _2125
REMARK  629  A    between atoms: _2137  and  _2138
REMARK  630  A    between atoms: _2138  and  _2139
REMARK  631  A    between atoms: _2138  and  _2141
REMARK  632  A    between atoms: _2141  and  _2142
REMARK  633  A    between atoms: _2141  and  _2143
REMARK  634  A    between atoms: _2151  and  _2152
REMARK  635  A    between atoms: _2152  and  _2153
REMARK  636  A    between atoms: _2152  and  _2155
REMARK  637  A    between atoms: _2155  and  _2156
REMARK  638  A    between atoms: _2156  and  _2157
REMARK  639  A    between atoms: _2157  and  _2158
REMARK  640  A    between atoms: _2158  and  _2159
REMARK  641  A    between atoms: _2173  and  _2174
REMARK  642  A    between atoms: _2174  and  _2175
REMARK  643  A    between atoms: _2174  and  _2177
REMARK  644  A    between atoms: _2177  and  _2178
REMARK  645  A    between atoms: _2190  and  _2191
REMARK  646  A    between atoms: _2191  and  _2192
REMARK  647  A    between atoms: _2191  and  _2194
REMARK  648  A    between atoms: _2194  and  _2195
REMARK  649  A    between atoms: _2204  and  _2205
REMARK  650  A    between atoms: _2205  and  _2206
REMARK  651  A    between atoms: _2205  and  _2208
REMARK  652  A    between atoms: _2208  and  _2209
REMARK  653  A    between atoms: _2216  and  _2217
REMARK  654  A    between atoms: _2217  and  _2218
REMARK  655  A    between atoms: _2217  and  _2220
REMARK  656  A    between atoms: _2220  and  _2221
REMARK  657  A    between atoms: _2228  and  _2229
REMARK  658  A    between atoms: _2229  and  _2230
REMARK  659  A    between atoms: _2229  and  _2232
REMARK  660  A    between atoms: _2232  and  _2233
REMARK  661  A    between atoms: _2233  and  _2234
REMARK  662  A    between atoms: _2243  and  _2244
REMARK  663  A    between atoms: _2244  and  _2245
REMARK  664  A    between atoms: _2244  and  _2247
REMARK  665  A    between atoms: _2247  and  _2248
REMARK  666  A    between atoms: _2248  and  _2249
REMARK  667  A    between atoms: _2260  and  _2261
REMARK  668  A    between atoms: _2261  and  _2262
REMARK  669  A    between atoms: _2261  and  _2264
REMARK  670  A    between atoms: _2264  and  _2265
REMARK  671  A    between atoms: _2270  and  _2271
REMARK  672  A    between atoms: _2281  and  _2282
REMARK  673  A    between atoms: _2282  and  _2283
REMARK  674  A    between atoms: _2282  and  _2285
REMARK  675  A    between atoms: _2291  and  _2292
REMARK  676  A    between atoms: _2292  and  _2293
REMARK  677  A    between atoms: _2292  and  _2295
REMARK  678  A    between atoms: _2295  and  _2296
REMARK  679  A    between atoms: _2315  and  _2316
REMARK  680  A    between atoms: _2316  and  _2317
REMARK  681  A    between atoms: _2316  and  _2319
REMARK  682  A    between atoms: _2319  and  _2320
REMARK  683  A    between atoms: _2320  and  _2321
REMARK  684  A    between atoms: _2330  and  _2331
REMARK  685  A    between atoms: _2331  and  _2332
REMARK  686  A    between atoms: _2331  and  _2334
REMARK  687  A    between atoms: _2334  and  _2335
REMARK  688  A    between atoms: _2341  and  _2342
REMARK  689  A    between atoms: _2342  and  _2343
REMARK  690  A    between atoms: _2342  and  _2345
REMARK  691  A    between atoms: _2345  and  _2346
REMARK  692  A    between atoms: _2352  and  _2353
REMARK  693  A    between atoms: _2353  and  _2354
REMARK  694  A    between atoms: _2353  and  _2356
REMARK  695  A    between atoms: _2362  and  _2363
REMARK  696  A    between atoms: _2363  and  _2364
REMARK  697  A    between atoms: _2369  and  _2370
REMARK  698  A    between atoms: _2370  and  _2371
REMARK  699  A    between atoms: _2376  and  _2377
REMARK  700  A    between atoms: _2377  and  _2378
REMARK  701  A    between atoms: _2377  and  _2380
REMARK  702  A    between atoms: _2380  and  _2381
REMARK  703  A    between atoms: _2387  and  _2388
REMARK  704  A    between atoms: _2388  and  _2389
REMARK  705  A    between atoms: _2388  and  _2391
REMARK  706  A    between atoms: _2391  and  _2392
REMARK  707  A    between atoms: _2407  and  _2408
REMARK  708  A    between atoms: _2408  and  _2409
REMARK  709  A    between atoms: _2408  and  _2411
REMARK  710  A    between atoms: _2411  and  _2412
REMARK  711  A    between atoms: _2411  and  _2413
REMARK  712  A    between atoms: _2421  and  _2422
REMARK  713  A    between atoms: _2422  and  _2423
REMARK  714  A    between atoms: _2422  and  _2425
REMARK  715  A    between atoms: _2425  and  _2426
REMARK  716  A    between atoms: _2425  and  _2427
REMARK  717  A    between atoms: _2437  and  _2438
REMARK  718  A    between atoms: _2438  and  _2439
REMARK  719  A    between atoms: _2438  and  _2441
REMARK  720  A    between atoms: _2441  and  _2442
REMARK  721  A    between atoms: _2442  and  _2443
REMARK  722  A    between atoms: _2443  and  _2444
REMARK  723  A    between atoms: _2461  and  _2462
REMARK  724  A    between atoms: _2462  and  _2463
REMARK  725  A    between atoms: _2462  and  _2465
REMARK  726  A    between atoms: _2465  and  _2466
REMARK  727  A    between atoms: _2465  and  _2467
REMARK  728  A    between atoms: _2475  and  _2476
REMARK  729  A    between atoms: _2476  and  _2477
REMARK  730  A    between atoms: _2476  and  _2479
REMARK  731  A    between atoms: _2479  and  _2480
REMARK  732  A    between atoms: _2487  and  _2488
REMARK  733  A    between atoms: _2488  and  _2489
REMARK  734  A    between atoms: _2488  and  _2491
REMARK  735  A    between atoms: _2491  and  _2492
REMARK  736  A    between atoms: _2491  and  _2493
REMARK  737  A    between atoms: _2501  and  _2502
REMARK  738  A    between atoms: _2502  and  _2503
REMARK  739  A    between atoms: _2508  and  _2509
REMARK  740  A    between atoms: _2509  and  _2510
REMARK  741  A    between atoms: _2509  and  _2512
REMARK  742  A    between atoms: _2512  and  _2513
REMARK  743  A    between atoms: _2513  and  _2514
REMARK  744  A    between atoms: _2524  and  _2525
REMARK  745  A    between atoms: _2537  and  _2538
REMARK  746  A    between atoms: _2538  and  _2539
REMARK  747  A    between atoms: _2538  and  _2541
REMARK  748  A    between atoms: _2541  and  _2542
REMARK  749  A    between atoms: _2542  and  _2543
REMARK  750  A    between atoms: _2543  and  _2544
REMARK  751  A    between atoms: _2554  and  _2555
REMARK  752  A    between atoms: _2555  and  _2556
REMARK  753  A    between atoms: _2561  and  _2562
REMARK  754  A    between atoms: _2562  and  _2563
REMARK  755  A    between atoms: _2562  and  _2565
REMARK  756  A    between atoms: _2565  and  _2566
REMARK  757  A    between atoms: _2566  and  _2567
REMARK  758  A    between atoms: _2567  and  _2568
REMARK  759  A    between atoms: _2585  and  _2586
REMARK  760  A    between atoms: _2586  and  _2587
REMARK  761  A    between atoms: _2592  and  _2593
REMARK  762  A    between atoms: _2593  and  _2594
REMARK  763  A    between atoms: _2593  and  _2596
REMARK  764  A    between atoms: _2596  and  _2597
REMARK  765  A    between atoms: _2596  and  _2598
REMARK  766  A    between atoms: _2606  and  _2607
REMARK  767  A    between atoms: _2607  and  _2608
REMARK  768  A    between atoms: _2607  and  _2610
REMARK  769  A    between atoms: _2610  and  _2611
REMARK  770  A    between atoms: _2611  and  _2612
REMARK  771  A    between atoms: _2612  and  _2613
REMARK  772  A    between atoms: _2613  and  _2614
REMARK  773  A    between atoms: _2628  and  _2629
REMARK  774  A    between atoms: _2629  and  _2630
REMARK  775  A    between atoms: _2629  and  _2632
REMARK  776  A    between atoms: _2632  and  _2633
REMARK  777  A    between atoms: _2632  and  _2634
REMARK  778  A    between atoms: _2644  and  _2645
REMARK  779  A    between atoms: _2645  and  _2646
REMARK  780  A    between atoms: _2645  and  _2648
REMARK  781  A    between atoms: _2648  and  _2649
REMARK  782  A    between atoms: _2648  and  _2650
REMARK  783  A    between atoms: _2649  and  _2651
REMARK  784  A    between atoms: _2663  and  _2664
REMARK  785  A    between atoms: _2664  and  _2665
REMARK  786  A    between atoms: _2664  and  _2667
REMARK  787  A    between atoms: _2667  and  _2668
REMARK  788  A    between atoms: _2668  and  _2669
REMARK  789  A    between atoms: _2668  and  _2670
REMARK  790  A    between atoms: _2682  and  _2683
REMARK  791  A    between atoms: _2683  and  _2684
REMARK  792  A    between atoms: _2683  and  _2686
REMARK  793  A    between atoms: _2686  and  _2687
REMARK  794  A    between atoms: _2699  and  _2700
REMARK  795  A    between atoms: _2700  and  _2701
REMARK  796  A    between atoms: _2700  and  _2703
REMARK  797  A    between atoms: _2703  and  _2704
REMARK  798  A    between atoms: _2704  and  _2705
REMARK  799  A    between atoms: _2704  and  _2706
REMARK  800  A    between atoms: _2718  and  _2719
REMARK  801  A    between atoms: _2719  and  _2720
REMARK  802  A    between atoms: _2719  and  _2722
REMARK  803  A    between atoms: _2722  and  _2723
REMARK  804  A    between atoms: _2723  and  _2724
REMARK  805  A    between atoms: _2724  and  _2725
REMARK  806  A    between atoms: _2725  and  _2726
REMARK  807  A    between atoms: _2740  and  _2741
REMARK  808  A    between atoms: _2741  and  _2742
REMARK  809  A    between atoms: _2741  and  _2744
REMARK  810  A    between atoms: _2744  and  _2745
REMARK  811  A    between atoms: _2745  and  _2746
REMARK  812  A    between atoms: _2755  and  _2756
REMARK  813  A    between atoms: _2756  and  _2757
REMARK  814  A    between atoms: _2756  and  _2759
REMARK  815  A    between atoms: _2759  and  _2760
REMARK  816  A    between atoms: _2767  and  _2768
REMARK  817  A    between atoms: _2768  and  _2769
REMARK  818  A    between atoms: _2768  and  _2771
REMARK  819  A    between atoms: _2771  and  _2772
REMARK  820  A    between atoms: _2772  and  _2773
REMARK  821  A    between atoms: _2784  and  _2785
REMARK  822  A    between atoms: _2785  and  _2786
REMARK  823  A    between atoms: _2785  and  _2788
REMARK  824  A    between atoms: _2788  and  _2789
REMARK  825  A    between atoms: _2788  and  _2790
REMARK  826  A    between atoms: _2798  and  _2799
REMARK  827  A    between atoms: _2799  and  _2800
REMARK  828  A    between atoms: _2799  and  _2802
REMARK  829  A    between atoms: _2802  and  _2803
REMARK  830  A    between atoms: _2803  and  _2804
REMARK  831  A    between atoms: _2813  and  _2814
REMARK  832  A    between atoms: _2814  and  _2815
REMARK  833  A    between atoms: _2814  and  _2817
REMARK  834  A    between atoms: _2817  and  _2818
REMARK  835  A    between atoms: _2823  and  _2824
REMARK  836  A    between atoms: _2834  and  _2835
REMARK  837  A    between atoms: _2835  and  _2838
REMARK  838  A    between atoms: _2838  and  _2839
REMARK  839  A    between atoms: _2839  and  _2840
REMARK  840  A    between atoms: _2839  and  _2841
REMARK  841  A    between atoms: _2884  and  _2885
REMARK  842  A    between atoms: _2884  and  _2887
REMARK  843  A    between atoms: _2887  and  _2888
REMARK  844  A    between atoms: _2888  and  _2889
REMARK  845  A    between atoms: _2899  and  _2900
REMARK  846  A    between atoms: _2900  and  _2901
REMARK  847  A    between atoms: _2900  and  _2903
REMARK  848  A    between atoms: _2903  and  _2904
REMARK  849  A    between atoms: _2904  and  _2905
REMARK  850  A    between atoms: _2905  and  _2906
REMARK  851  A    between atoms: _2923  and  _2924
REMARK  852  A    between atoms: _2924  and  _2925
REMARK  853  A    between atoms: _2924  and  _2927
REMARK  854  A    between atoms: _2927  and  _2928
REMARK  855  A    between atoms: _2928  and  _2929
REMARK  856  A    between atoms: _2929  and  _2930
REMARK  857  A    between atoms: _2947  and  _2948
REMARK  858  A    between atoms: _2948  and  _2949
REMARK  859  A    between atoms: _2948  and  _2951
REMARK  860  A    between atoms: _2951  and  _2952
REMARK  861  A    between atoms: _2951  and  _2953
REMARK  862  A    between atoms: _2952  and  _2954
REMARK  863  A    between atoms: _2966  and  _2967
REMARK  864  A    between atoms: _2967  and  _2968
REMARK  865  A    between atoms: _2967  and  _2970
REMARK  866  A    between atoms: _2970  and  _2971
REMARK  867  A    between atoms: _2971  and  _2972
REMARK  868  A    between atoms: _2972  and  _2973
REMARK  869  A    between atoms: _2973  and  _2974
REMARK  870  A    between atoms: _2988  and  _2989
REMARK  871  A    between atoms: _2989  and  _2990
REMARK  872  A    between atoms: _2989  and  _2992
REMARK  873  A    between atoms: _2992  and  _2993
REMARK  874  A    between atoms: _2993  and  _2994
REMARK  875  A    between atoms: _3003  and  _3004
REMARK  876  A    between atoms: _3004  and  _3005
REMARK  877  A    between atoms: _3004  and  _3007
REMARK  878  A    between atoms: _3007  and  _3008
REMARK  879  A    between atoms: _3007  and  _3009
REMARK  880  A    between atoms: _3008  and  _3010
REMARK  881  A    between atoms: _3022  and  _3023
REMARK  882  A    between atoms: _3023  and  _3024
REMARK  883  A    between atoms: _3023  and  _3026
REMARK  884  A    between atoms: _3026  and  _3027
REMARK  885  A    between atoms: _3026  and  _3028
REMARK  886  A    between atoms: _3038  and  _3039
REMARK  887  A    between atoms: _3039  and  _3040
REMARK  888  A    between atoms: _3039  and  _3042
REMARK  889  A    between atoms: _3042  and  _3043
REMARK  890  A    between atoms: _3043  and  _3044
REMARK  891  A    between atoms: _3044  and  _3045
REMARK  892  A    between atoms: _3045  and  _3046
REMARK  893  A    between atoms: _3060  and  _3061
REMARK  894  A    between atoms: _3061  and  _3062
REMARK  895  A    between atoms: _3061  and  _3064
REMARK  896  A    between atoms: _3064  and  _3065
REMARK  897  A    between atoms: _3065  and  _3066
REMARK  898  A    between atoms: _3066  and  _3067
REMARK  899  A    between atoms: _3067  and  _3068
REMARK  900  A    between atoms: _3082  and  _3083
REMARK  901  A    between atoms: _3083  and  _3084
REMARK  902  A    between atoms: _3083  and  _3086
REMARK  903  A    between atoms: _3086  and  _3087
REMARK  904  A    between atoms: _3099  and  _3100
REMARK  905  A    between atoms: _3100  and  _3101
REMARK  906  A    between atoms: _3100  and  _3103
REMARK  907  A    between atoms: _3103  and  _3104
REMARK  908  A    between atoms: _3110  and  _3111
REMARK  909  A    between atoms: _3111  and  _3112
REMARK  910  A    between atoms: _3111  and  _3114
REMARK  911  A    between atoms: _3114  and  _3115
REMARK  912  A    between atoms: _3115  and  _3116
REMARK  913  A    between atoms: _3127  and  _3128
REMARK  914  A    between atoms: _3128  and  _3129
REMARK  915  A    between atoms: _3128  and  _3131
REMARK  916  A    between atoms: _3131  and  _3132
REMARK  917  A    between atoms: _3147  and  _3148
REMARK  918  A    between atoms: _3148  and  _3149
REMARK  919  A    between atoms: _3148  and  _3151
REMARK  920  A    between atoms: _3151  and  _3152
REMARK  921  A    between atoms: _3151  and  _3153
REMARK  922  A    between atoms: _3152  and  _3154
REMARK  923  A    between atoms: _3166  and  _3167
REMARK  924  A    between atoms: _3167  and  _3168
REMARK  925  A    between atoms: _3173  and  _3174
REMARK  926  A    between atoms: _3174  and  _3175
REMARK  927  A    between atoms: _3174  and  _3177
REMARK  928  A    between atoms: _3177  and  _3178
REMARK  929  A    between atoms: _3183  and  _3184
REMARK  930  A    between atoms: _3195  and  _3196
REMARK  931  A    between atoms: _3208  and  _3209
REMARK  932  A    between atoms: _3209  and  _3210
REMARK  933  A    between atoms: _3209  and  _3212
REMARK  934  A    between atoms: _3212  and  _3213
REMARK  935  A    between atoms: _3212  and  _3214
REMARK  936  A    between atoms: _3213  and  _3215
REMARK  937  A    between atoms: _3227  and  _3228
REMARK  938  A    between atoms: _3228  and  _3229
REMARK  939  A    between atoms: _3228  and  _3231
REMARK  940  A    between atoms: _3231  and  _3232
REMARK  941  A    between atoms: _3231  and  _3233
REMARK  942  A    between atoms: _3241  and  _3242
REMARK  943  A    between atoms: _3242  and  _3243
REMARK  944  A    between atoms: _3242  and  _3245
REMARK  945  A    between atoms: _3245  and  _3246
REMARK  946  A    between atoms: _3246  and  _3247
REMARK  947  A    between atoms: _3246  and  _3248
REMARK  948  A    between atoms: _3260  and  _3261
REMARK  949  A    between atoms: _3261  and  _3262
REMARK  950  A    between atoms: _3261  and  _3264
REMARK  951  A    between atoms: _3264  and  _3265
REMARK  952  A    between atoms: _3280  and  _3281
REMARK  953  A    between atoms: _3281  and  _3282
REMARK  954  A    between atoms: _3281  and  _3284
REMARK  955  A    between atoms: _3284  and  _3285
REMARK  956  A    between atoms: _3284  and  _3286
REMARK  957  A    between atoms: _3296  and  _3297
REMARK  958  A    between atoms: _3297  and  _3298
REMARK  959  A    between atoms: _3297  and  _3300
REMARK  960  A    between atoms: _3300  and  _3301
REMARK  961  A    between atoms: _3301  and  _3302
REMARK                            x       y       z     vdW  Elec       q    Type
REMARK                         _______ _______ _______ _____ _____    ______ ____
ROOT
ATOM      1  C   UNL     1     -10.380  21.272  40.835  0.00  0.00    +0.279 C 
ATOM      2  O   UNL     1      -9.831  22.380  40.844  0.00  0.00    -0.279 OA
ENDROOT
TORSDOF 0
REMARK  Name = /Users/mlugowska/PhD/ML_residence_time_prediction/protein_files/5J20_protein.pdb
REMARK  961 active torsions:
REMARK  status: ('A' for Active; 'I' for Inactive)
REMARK    1  A    between atoms: _2  and  _3
REMARK    2  A    between atoms: _2  and  _5
REMARK    3  A    between atoms: _10  and  _11
REMARK    4  A    between atoms: _11  and  _12
REMARK    5  A    between atoms: _11  and  _14
REMARK    6  A    between atoms: _14  and  _15
REMARK    7  A    between atoms: _14  and  _16
REMARK    8  A    between atoms: _26  and  _27
REMARK    9  A    between atoms: _27  and  _28
REMARK   10  A    between atoms: _27  and  _30
REMARK   11  A    between atoms: _30  and  _31
REMARK   12  A    between atoms: _31  and  _32
REMARK   13  A    between atoms: _41  and  _42
REMARK   14  A    between atoms: _42  and  _43
REMARK   15  A    between atoms: _42  and  _45
REMARK   16  A    between atoms: _45  and  _46
REMARK   17  A    between atoms: _45  and  _47
REMARK   18  A    between atoms: _55  and  _56
REMARK   19  A    between atoms: _56  and  _57
REMARK   20  A    between atoms: _56  and  _59
REMARK   21  A    between atoms: _59  and  _60
REMARK   22  A    between atoms: _75  and  _76
REMARK   23  A    between atoms: _76  and  _77
REMARK   24  A    between atoms: _76  and  _79
REMARK   25  A    between atoms: _85  and  _86
REMARK   26  A    between atoms: _86  and  _87
REMARK   27  A    between atoms: _86  and  _89
REMARK   28  A    between atoms: _89  and  _90
REMARK   29  A    between atoms: _105  and  _106
REMARK   30  A    between atoms: _106  and  _107
REMARK   31  A    between atoms: _106  and  _109
REMARK   32  A    between atoms: _109  and  _110
REMARK   33  A    between atoms: _110  and  _111
REMARK   34  A    between atoms: _122  and  _123
REMARK   35  A    between atoms: _123  and  _124
REMARK   36  A    between atoms: _123  and  _126
REMARK   37  A    between atoms: _132  and  _133
REMARK   38  A    between atoms: _133  and  _134
REMARK   39  A    between atoms: _133  and  _136
REMARK   40  A    between atoms: _136  and  _137
REMARK   41  A    between atoms: _137  and  _138
REMARK   42  A    between atoms: _147  and  _148
REMARK   43  A    between atoms: _148  and  _149
REMARK   44  A    between atoms: _148  and  _151
REMARK   45  A    between atoms: _151  and  _152
REMARK   46  A    between atoms: _151  and  _153
REMARK   47  A    between atoms: _152  and  _154
REMARK   48  A    between atoms: _166  and  _167
REMARK   49  A    between atoms: _167  and  _168
REMARK   50  A    between atoms: _167  and  _170
REMARK   51  A    between atoms: _176  and  _177
REMARK   52  A    between atoms: _177  and  _178
REMARK   53  A    between atoms: _177  and  _180
REMARK   54  A    between atoms: _180  and  _181
REMARK   55  A    between atoms: _181  and  _182
REMARK   56  A    between atoms: _193  and  _194
REMARK   57  A    between atoms: _194  and  _195
REMARK   58  A    between atoms: _194  and  _197
REMARK   59  A    between atoms: _197  and  _198
REMARK   60  A    between atoms: _198  and  _199
REMARK   61  A    between atoms: _198  and  _200
REMARK   62  A    between atoms: _212  and  _213
REMARK   63  A    between atoms: _213  and  _214
REMARK   64  A    between atoms: _213  and  _216
REMARK   65  A    between atoms: _216  and  _217
REMARK   66  A    between atoms: _217  and  _218
REMARK   67  A    between atoms: _218  and  _219
REMARK   68  A    between atoms: _229  and  _230
REMARK   69  A    between atoms: _230  and  _231
REMARK   70  A    between atoms: _230  and  _233
REMARK   71  A    between atoms: _233  and  _234
REMARK   72  A    between atoms: _240  and  _241
REMARK   73  A    between atoms: _241  and  _242
REMARK   74  A    between atoms: _241  and  _244
REMARK   75  A    between atoms: _244  and  _245
REMARK   76  A    between atoms: _245  and  _246
REMARK   77  A    between atoms: _245  and  _247
REMARK   78  A    between atoms: _259  and  _260
REMARK   79  A    between atoms: _260  and  _261
REMARK   80  A    between atoms: _260  and  _263
REMARK   81  A    between atoms: _263  and  _264
REMARK   82  A    between atoms: _263  and  _265
REMARK   83  A    between atoms: _264  and  _266
REMARK   84  A    between atoms: _278  and  _279
REMARK   85  A    between atoms: _279  and  _280
REMARK   86  A    between atoms: _279  and  _282
REMARK   87  A    between atoms: _282  and  _283
REMARK   88  A    between atoms: _282  and  _284
REMARK   89  A    between atoms: _283  and  _285
REMARK   90  A    between atoms: _297  and  _298
REMARK   91  A    between atoms: _298  and  _299
REMARK   92  A    between atoms: _298  and  _301
REMARK   93  A    between atoms: _301  and  _302
REMARK   94  A    between atoms: _311  and  _312
REMARK   95  A    between atoms: _312  and  _313
REMARK   96  A    between atoms: _312  and  _315
REMARK   97  A    between atoms: _315  and  _316
REMARK   98  A    between atoms: _315  and  _317
REMARK   99  A    between atoms: _325  and  _326
REMARK  100  A    between atoms: _326  and  _327
REMARK  101  A    between atoms: _326  and  _329
REMARK  102  A    between atoms: _329  and  _330
REMARK  103  A    between atoms: _345  and  _346
REMARK  104  A    between atoms: _346  and  _347
REMARK  105  A    between atoms: _346  and  _349
REMARK  106  A    between atoms: _349  and  _350
REMARK  107  A    between atoms: _355  and  _356
REMARK  108  A    between atoms: _366  and  _367
REMARK  109  A    between atoms: _367  and  _368
REMARK  110  A    between atoms: _367  and  _370
REMARK  111  A    between atoms: _370  and  _371
REMARK  112  A    between atoms: _377  and  _378
REMARK  113  A    between atoms: _378  and  _379
REMARK  114  A    between atoms: _378  and  _381
REMARK  115  A    between atoms: _381  and  _382
REMARK  116  A    between atoms: _391  and  _392
REMARK  117  A    between atoms: _392  and  _393
REMARK  118  A    between atoms: _392  and  _395
REMARK  119  A    between atoms: _395  and  _396
REMARK  120  A    between atoms: _396  and  _397
REMARK  121  A    between atoms: _397  and  _398
REMARK  122  A    between atoms: _398  and  _399
REMARK  123  A    between atoms: _413  and  _414
REMARK  124  A    between atoms: _414  and  _415
REMARK  125  A    between atoms: _414  and  _417
REMARK  126  A    between atoms: _417  and  _418
REMARK  127  A    between atoms: _418  and  _419
REMARK  128  A    between atoms: _428  and  _429
REMARK  129  A    between atoms: _429  and  _430
REMARK  130  A    between atoms: _429  and  _432
REMARK  131  A    between atoms: _432  and  _433
REMARK  132  A    between atoms: _432  and  _434
REMARK  133  A    between atoms: _433  and  _435
REMARK  134  A    between atoms: _447  and  _448
REMARK  135  A    between atoms: _448  and  _449
REMARK  136  A    between atoms: _448  and  _451
REMARK  137  A    between atoms: _451  and  _452
REMARK  138  A    between atoms: _467  and  _468
REMARK  139  A    between atoms: _468  and  _469
REMARK  140  A    between atoms: _468  and  _471
REMARK  141  A    between atoms: _471  and  _472
REMARK  142  A    between atoms: _472  and  _473
REMARK  143  A    between atoms: _472  and  _474
REMARK  144  A    between atoms: _486  and  _487
REMARK  145  A    between atoms: _487  and  _488
REMARK  146  A    between atoms: _487  and  _490
REMARK  147  A    between atoms: _490  and  _491
REMARK  148  A    between atoms: _491  and  _492
REMARK  149  A    between atoms: _492  and  _493
REMARK  150  A    between atoms: _510  and  _511
REMARK  151  A    between atoms: _511  and  _512
REMARK  152  A    between atoms: _511  and  _514
REMARK  153  A    between atoms: _514  and  _515
REMARK  154  A    between atoms: _515  and  _516
REMARK  155  A    between atoms: _525  and  _526
REMARK  156  A    between atoms: _526  and  _527
REMARK  157  A    between atoms: _526  and  _529
REMARK  158  A    between atoms: _529  and  _530
REMARK  159  A    between atoms: _530  and  _531
REMARK  160  A    between atoms: _530  and  _532
REMARK  161  A    between atoms: _544  and  _545
REMARK  162  A    between atoms: _545  and  _546
REMARK  163  A    between atoms: _545  and  _548
REMARK  164  A    between atoms: _548  and  _549
REMARK  165  A    between atoms: _548  and  _550
REMARK  166  A    between atoms: _549  and  _551
REMARK  167  A    between atoms: _563  and  _564
REMARK  168  A    between atoms: _564  and  _565
REMARK  169  A    between atoms: _564  and  _567
REMARK  170  A    between atoms: _567  and  _568
REMARK  171  A    between atoms: _574  and  _575
REMARK  172  A    between atoms: _575  and  _576
REMARK  173  A    between atoms: _575  and  _578
REMARK  174  A    between atoms: _578  and  _579
REMARK  175  A    between atoms: _588  and  _589
REMARK  176  A    between atoms: _589  and  _590
REMARK  177  A    between atoms: _589  and  _592
REMARK  178  A    between atoms: _592  and  _593
REMARK  179  A    between atoms: _599  and  _600
REMARK  180  A    between atoms: _600  and  _601
REMARK  181  A    between atoms: _600  and  _603
REMARK  182  A    between atoms: _603  and  _604
REMARK  183  A    between atoms: _610  and  _611
REMARK  184  A    between atoms: _611  and  _612
REMARK  185  A    between atoms: _611  and  _614
REMARK  186  A    between atoms: _614  and  _615
REMARK  187  A    between atoms: _622  and  _623
REMARK  188  A    between atoms: _623  and  _624
REMARK  189  A    between atoms: _623  and  _626
REMARK  190  A    between atoms: _632  and  _633
REMARK  191  A    between atoms: _633  and  _634
REMARK  192  A    between atoms: _633  and  _636
REMARK  193  A    between atoms: _636  and  _637
REMARK  194  A    between atoms: _637  and  _638
REMARK  195  A    between atoms: _637  and  _639
REMARK  196  A    between atoms: _651  and  _652
REMARK  197  A    between atoms: _652  and  _653
REMARK  198  A    between atoms: _652  and  _655
REMARK  199  A    between atoms: _655  and  _656
REMARK  200  A    between atoms: _663  and  _664
REMARK  201  A    between atoms: _664  and  _665
REMARK  202  A    between atoms: _664  and  _667
REMARK  203  A    between atoms: _667  and  _668
REMARK  204  A    between atoms: _668  and  _669
REMARK  205  A    between atoms: _669  and  _670
REMARK  206  A    between atoms: _670  and  _671
REMARK  207  A    between atoms: _685  and  _686
REMARK  208  A    between atoms: _686  and  _687
REMARK  209  A    between atoms: _686  and  _689
REMARK  210  A    between atoms: _689  and  _690
REMARK  211  A    between atoms: _689  and  _691
REMARK  212  A    between atoms: _690  and  _692
REMARK  213  A    between atoms: _704  and  _705
REMARK  214  A    between atoms: _705  and  _706
REMARK  215  A    between atoms: _705  and  _708
REMARK  216  A    between atoms: _708  and  _709
REMARK  217  A    between atoms: _709  and  _710
REMARK  218  A    between atoms: _710  and  _711
REMARK  219  A    between atoms: _728  and  _729
REMARK  220  A    between atoms: _729  and  _730
REMARK  221  A    between atoms: _729  and  _732
REMARK  222  A    between atoms: _732  and  _733
REMARK  223  A    between atoms: _738  and  _739
REMARK  224  A    between atoms: _749  and  _750
REMARK  225  A    between atoms: _750  and  _751
REMARK  226  A    between atoms: _750  and  _753
REMARK  227  A    between atoms: _753  and  _754
REMARK  228  A    between atoms: _754  and  _755
REMARK  229  A    between atoms: _764  and  _765
REMARK  230  A    between atoms: _765  and  _766
REMARK  231  A    between atoms: _765  and  _768
REMARK  232  A    between atoms: _772  and  _773
REMARK  233  A    between atoms: _773  and  _774
REMARK  234  A    between atoms: _773  and  _776
REMARK  235  A    between atoms: _776  and  _777
REMARK  236  A    between atoms: _777  and  _778
REMARK  237  A    between atoms: _777  and  _779
REMARK  238  A    between atoms: _791  and  _792
REMARK  239  A    between atoms: _792  and  _793
REMARK  240  A    between atoms: _792  and  _795
REMARK  241  A    between atoms: _795  and  _796
REMARK  242  A    between atoms: _795  and  _797
REMARK  243  A    between atoms: _805  and  _806
REMARK  244  A    between atoms: _806  and  _807
REMARK  245  A    between atoms: _806  and  _809
REMARK  246  A    between atoms: _809  and  _810
REMARK  247  A    between atoms: _818  and  _819
REMARK  248  A    between atoms: _831  and  _832
REMARK  249  A    between atoms: _832  and  _833
REMARK  250  A    between atoms: _832  and  _835
REMARK  251  A    between atoms: _835  and  _836
REMARK  252  A    between atoms: _842  and  _843
REMARK  253  A    between atoms: _843  and  _844
REMARK  254  A    between atoms: _843  and  _846
REMARK  255  A    between atoms: _846  and  _847
REMARK  256  A    between atoms: _847  and  _848
REMARK  257  A    between atoms: _848  and  _849
REMARK  258  A    between atoms: _849  and  _850
REMARK  259  A    between atoms: _864  and  _865
REMARK  260  A    between atoms: _865  and  _866
REMARK  261  A    between atoms: _865  and  _868
REMARK  262  A    between atoms: _868  and  _869
REMARK  263  A    between atoms: _869  and  _870
REMARK  264  A    between atoms: _869  and  _871
REMARK  265  A    between atoms: _883  and  _884
REMARK  266  A    between atoms: _884  and  _885
REMARK  267  A    between atoms: _884  and  _887
REMARK  268  A    between atoms: _887  and  _888
REMARK  269  A    between atoms: _895  and  _896
REMARK  270  A    between atoms: _896  and  _897
REMARK  271  A    between atoms: _896  and  _899
REMARK  272  A    between atoms: _899  and  _900
REMARK  273  A    between atoms: _906  and  _907
REMARK  274  A    between atoms: _907  and  _908
REMARK  275  A    between atoms: _913  and  _914
REMARK  276  A    between atoms: _914  and  _915
REMARK  277  A    between atoms: _914  and  _917
REMARK  278  A    between atoms: _917  and  _918
REMARK  279  A    between atoms: _918  and  _919
REMARK  280  A    between atoms: _919  and  _920
REMARK  281  A    between atoms: _920  and  _921
REMARK  282  A    between atoms: _935  and  _936
REMARK  283  A    between atoms: _936  and  _937
REMARK  284  A    between atoms: _936  and  _939
REMARK  285  A    between atoms: _939  and  _940
REMARK  286  A    between atoms: _940  and  _941
REMARK  287  A    between atoms: _950  and  _951
REMARK  288  A    between atoms: _951  and  _952
REMARK  289  A    between atoms: _951  and  _954
REMARK  290  A    between atoms: _954  and  _955
REMARK  291  A    between atoms: _955  and  _956
REMARK  292  A    between atoms: _955  and  _957
REMARK  293  A    between atoms: _969  and  _970
REMARK  294  A    between atoms: _970  and  _971
REMARK  295  A    between atoms: _970  and  _973
REMARK  296  A    between atoms: _973  and  _974
REMARK  297  A    between atoms: _986  and  _987
REMARK  298  A    between atoms: _987  and  _988
REMARK  299  A    between atoms: _987  and  _990
REMARK  300  A    between atoms: _990  and  _991
REMARK  301  A    between atoms: _990  and  _992
REMARK  302  A    between atoms: _991  and  _993
REMARK  303  A    between atoms: _1005  and  _1006
REMARK  304  A    between atoms: _1006  and  _1007
REMARK  305  A    between atoms: _1006  and  _1009
REMARK  306  A    between atoms: _1009  and  _1010
REMARK  307  A    between atoms: _1019  and  _1020
REMARK  308  A    between atoms: _1020  and  _1021
REMARK  309  A    between atoms: _1020  and  _1023
REMARK  310  A    between atoms: _1023  and  _1024
REMARK  311  A    between atoms: _1024  and  _1025
REMARK  312  A    between atoms: _1024  and  _1026
REMARK  313  A    between atoms: _1038  and  _1039
REMARK  314  A    between atoms: _1039  and  _1040
REMARK  315  A    between atoms: _1039  and  _1042
REMARK  316  A    between atoms: _1042  and  _1043
REMARK  317  A    between atoms: _1042  and  _1044
REMARK  318  A    between atoms: _1043  and  _1045
REMARK  319  A    between atoms: _1058  and  _1059
REMARK  320  A    between atoms: _1071  and  _1072
REMARK  321  A    between atoms: _1072  and  _1073
REMARK  322  A    between atoms: _1072  and  _1075
REMARK  323  A    between atoms: _1075  and  _1076
REMARK  324  A    between atoms: _1085  and  _1086
REMARK  325  A    between atoms: _1086  and  _1087
REMARK  326  A    between atoms: _1086  and  _1089
REMARK  327  A    between atoms: _1089  and  _1090
REMARK  328  A    between atoms: _1090  and  _1091
REMARK  329  A    between atoms: _1091  and  _1092
REMARK  330  A    between atoms: _1092  and  _1093
REMARK  331  A    between atoms: _1107  and  _1108
REMARK  332  A    between atoms: _1108  and  _1109
REMARK  333  A    between atoms: _1108  and  _1111
REMARK  334  A    between atoms: _1111  and  _1112
REMARK  335  A    between atoms: _1112  and  _1113
REMARK  336  A    between atoms: _1124  and  _1125
REMARK  337  A    between atoms: _1125  and  _1126
REMARK  338  A    between atoms: _1125  and  _1128
REMARK  339  A    between atoms: _1128  and  _1129
REMARK  340  A    between atoms: _1136  and  _1137
REMARK  341  A    between atoms: _1137  and  _1138
REMARK  342  A    between atoms: _1137  and  _1140
REMARK  343  A    between atoms: _1140  and  _1141
REMARK  344  A    between atoms: _1141  and  _1142
REMARK  345  A    between atoms: _1142  and  _1143
REMARK  346  A    between atoms: _1160  and  _1161
REMARK  347  A    between atoms: _1161  and  _1162
REMARK  348  A    between atoms: _1161  and  _1164
REMARK  349  A    between atoms: _1164  and  _1165
REMARK  350  A    between atoms: _1164  and  _1166
REMARK  351  A    between atoms: _1174  and  _1175
REMARK  352  A    between atoms: _1175  and  _1176
REMARK  353  A    between atoms: _1175  and  _1178
REMARK  354  A    between atoms: _1178  and  _1179
REMARK  355  A    between atoms: _1179  and  _1180
REMARK  356  A    between atoms: _1179  and  _1181
REMARK  357  A    between atoms: _1193  and  _1194
REMARK  358  A    between atoms: _1194  and  _1195
REMARK  359  A    between atoms: _1194  and  _1197
REMARK  360  A    between atoms: _1197  and  _1198
REMARK  361  A    between atoms: _1197  and  _1199
REMARK  362  A    between atoms: _1207  and  _1208
REMARK  363  A    between atoms: _1208  and  _1209
REMARK  364  A    between atoms: _1208  and  _1211
REMARK  365  A    between atoms: _1211  and  _1212
REMARK  366  A    between atoms: _1211  and  _1213
REMARK  367  A    between atoms: _1212  and  _1214
REMARK  368  A    between atoms: _1226  and  _1227
REMARK  369  A    between atoms: _1227  and  _1228
REMARK  370  A    between atoms: _1227  and  _1230
REMARK  371  A    between atoms: _1230  and  _1231
REMARK  372  A    between atoms: _1230  and  _1232
REMARK  373  A    between atoms: _1242  and  _1243
REMARK  374  A    between atoms: _1243  and  _1244
REMARK  375  A    between atoms: _1243  and  _1246
REMARK  376  A    between atoms: _1246  and  _1247
REMARK  377  A    between atoms: _1254  and  _1255
REMARK  378  A    between atoms: _1255  and  _1256
REMARK  379  A    between atoms: _1255  and  _1258
REMARK  380  A    between atoms: _1258  and  _1259
REMARK  381  A    between atoms: _1258  and  _1260
REMARK  382  A    between atoms: _1268  and  _1269
REMARK  383  A    between atoms: _1269  and  _1270
REMARK  384  A    between atoms: _1275  and  _1276
REMARK  385  A    between atoms: _1276  and  _1277
REMARK  386  A    between atoms: _1276  and  _1279
REMARK  387  A    between atoms: _1279  and  _1280
REMARK  388  A    between atoms: _1279  and  _1281
REMARK  389  A    between atoms: _1280  and  _1282
REMARK  390  A    between atoms: _1294  and  _1295
REMARK  391  A    between atoms: _1295  and  _1296
REMARK  392  A    between atoms: _1301  and  _1302
REMARK  393  A    between atoms: _1302  and  _1303
REMARK  394  A    between atoms: _1302  and  _1305
REMARK  395  A    between atoms: _1305  and  _1306
REMARK  396  A    between atoms: _1306  and  _1307
REMARK  397  A    between atoms: _1307  and  _1308
REMARK  398  A    between atoms: _1318  and  _1319
REMARK  399  A    between atoms: _1319  and  _1320
REMARK  400  A    between atoms: _1319  and  _1322
REMARK  401  A    between atoms: _1322  and  _1323
REMARK  402  A    between atoms: _1322  and  _1324
REMARK  403  A    between atoms: _1332  and  _1333
REMARK  404  A    between atoms: _1333  and  _1334
REMARK  405  A    between atoms: _1333  and  _1336
REMARK  406  A    between atoms: _1336  and  _1337
REMARK  407  A    between atoms: _1337  and  _1338
REMARK  408  A    between atoms: _1338  and  _1339
REMARK  409  A    between atoms: _1339  and  _1340
REMARK  410  A    between atoms: _1354  and  _1355
REMARK  411  A    between atoms: _1355  and  _1356
REMARK  412  A    between atoms: _1355  and  _1358
REMARK  413  A    between atoms: _1364  and  _1365
REMARK  414  A    between atoms: _1365  and  _1366
REMARK  415  A    between atoms: _1365  and  _1368
REMARK  416  A    between atoms: _1368  and  _1369
REMARK  417  A    between atoms: _1376  and  _1377
REMARK  418  A    between atoms: _1377  and  _1378
REMARK  419  A    between atoms: _1377  and  _1380
REMARK  420  A    between atoms: _1380  and  _1381
REMARK  421  A    between atoms: _1381  and  _1382
REMARK  422  A    between atoms: _1381  and  _1383
REMARK  423  A    between atoms: _1395  and  _1396
REMARK  424  A    between atoms: _1396  and  _1399
REMARK  425  A    between atoms: _1399  and  _1400
REMARK  426  A    between atoms: _1399  and  _1401
REMARK  427  A    between atoms: _1400  and  _1402
REMARK  428  A    between atoms: _1422  and  _1425
REMARK  429  A    between atoms: _1424  and  _1428
REMARK  430  A    between atoms: _1425  and  _1427
REMARK  431  A    between atoms: _1443  and  _1444
REMARK  432  A    between atoms: _1443  and  _1446
REMARK  433  A    between atoms: _1446  and  _1447
REMARK  434  A    between atoms: _1457  and  _1458
REMARK  435  A    between atoms: _1458  and  _1459
REMARK  436  A    between atoms: _1458  and  _1461
REMARK  437  A    between atoms: _1461  and  _1462
REMARK  438  A    between atoms: _1462  and  _1463
REMARK  439  A    between atoms: _1462  and  _1464
REMARK  440  A    between atoms: _1476  and  _1477
REMARK  441  A    between atoms: _1477  and  _1478
REMARK  442  A    between atoms: _1483  and  _1484
REMARK  443  A    between atoms: _1484  and  _1485
REMARK  444  A    between atoms: _1484  and  _1487
REMARK  445  A    between atoms: _1487  and  _1488
REMARK  446  A    between atoms: _1487  and  _1489
REMARK  447  A    between atoms: _1497  and  _1498
REMARK  448  A    between atoms: _1498  and  _1499
REMARK  449  A    between atoms: _1498  and  _1501
REMARK  450  A    between atoms: _1501  and  _1502
REMARK  451  A    between atoms: _1501  and  _1503
REMARK  452  A    between atoms: _1502  and  _1504
REMARK  453  A    between atoms: _1516  and  _1517
REMARK  454  A    between atoms: _1517  and  _1518
REMARK  455  A    between atoms: _1517  and  _1520
REMARK  456  A    between atoms: _1526  and  _1527
REMARK  457  A    between atoms: _1527  and  _1528
REMARK  458  A    between atoms: _1527  and  _1530
REMARK  459  A    between atoms: _1530  and  _1531
REMARK  460  A    between atoms: _1531  and  _1532
REMARK  461  A    between atoms: _1532  and  _1533
REMARK  462  A    between atoms: _1533  and  _1534
REMARK  463  A    between atoms: _1548  and  _1549
REMARK  464  A    between atoms: _1549  and  _1550
REMARK  465  A    between atoms: _1549  and  _1552
REMARK  466  A    between atoms: _1552  and  _1553
REMARK  467  A    between atoms: _1559  and  _1560
REMARK  468  A    between atoms: _1560  and  _1561
REMARK  469  A    between atoms: _1566  and  _1567
REMARK  470  A    between atoms: _1567  and  _1568
REMARK  471  A    between atoms: _1567  and  _1570
REMARK  472  A    between atoms: _1570  and  _1571
REMARK  473  A    between atoms: _1570  and  _1572
REMARK  474  A    between atoms: _1580  and  _1581
REMARK  475  A    between atoms: _1581  and  _1582
REMARK  476  A    between atoms: _1581  and  _1584
REMARK  477  A    between atoms: _1584  and  _1585
REMARK  478  A    between atoms: _1585  and  _1586
REMARK  479  A    between atoms: _1586  and  _1587
REMARK  480  A    between atoms: _1587  and  _1588
REMARK  481  A    between atoms: _1602  and  _1603
REMARK  482  A    between atoms: _1603  and  _1604
REMARK  483  A    between atoms: _1603  and  _1606
REMARK  484  A    between atoms: _1612  and  _1613
REMARK  485  A    between atoms: _1613  and  _1614
REMARK  486  A    between atoms: _1613  and  _1616
REMARK  487  A    between atoms: _1616  and  _1617
REMARK  488  A    between atoms: _1632  and  _1633
REMARK  489  A    between atoms: _1633  and  _1634
REMARK  490  A    between atoms: _1633  and  _1636
REMARK  491  A    between atoms: _1636  and  _1637
REMARK  492  A    between atoms: _1637  and  _1638
REMARK  493  A    between atoms: _1638  and  _1639
REMARK  494  A    between atoms: _1649  and  _1650
REMARK  495  A    between atoms: _1650  and  _1651
REMARK  496  A    between atoms: _1650  and  _1653
REMARK  497  A    between atoms: _1653  and  _1654
REMARK  498  A    between atoms: _1654  and  _1655
REMARK  499  A    between atoms: _1664  and  _1665
REMARK  500  A    between atoms: _1665  and  _1666
REMARK  501  A    between atoms: _1665  and  _1668
REMARK  502  A    between atoms: _1674  and  _1675
REMARK  503  A    between atoms: _1675  and  _1676
REMARK  504  A    between atoms: _1675  and  _1678
REMARK  505  A    between atoms: _1678  and  _1679
REMARK  506  A    between atoms: _1679  and  _1680
REMARK  507  A    between atoms: _1679  and  _1681
REMARK  508  A    between atoms: _1693  and  _1694
REMARK  509  A    between atoms: _1694  and  _1695
REMARK  510  A    between atoms: _1694  and  _1697
REMARK  511  A    between atoms: _1697  and  _1698
REMARK  512  A    between atoms: _1698  and  _1699
REMARK  513  A    between atoms: _1710  and  _1711
REMARK  514  A    between atoms: _1711  and  _1712
REMARK  515  A    between atoms: _1711  and  _1714
REMARK  516  A    between atoms: _1720  and  _1721
REMARK  517  A    between atoms: _1721  and  _1722
REMARK  518  A    between atoms: _1727  and  _1728
REMARK  519  A    between atoms: _1728  and  _1729
REMARK  520  A    between atoms: _1728  and  _1731
REMARK  521  A    between atoms: _1737  and  _1738
REMARK  522  A    between atoms: _1738  and  _1739
REMARK  523  A    between atoms: _1738  and  _1741
REMARK  524  A    between atoms: _1741  and  _1742
REMARK  525  A    between atoms: _1749  and  _1750
REMARK  526  A    between atoms: _1750  and  _1751
REMARK  527  A    between atoms: _1750  and  _1753
REMARK  528  A    between atoms: _1753  and  _1754
REMARK  529  A    between atoms: _1753  and  _1755
REMARK  530  A    between atoms: _1754  and  _1756
REMARK  531  A    between atoms: _1768  and  _1769
REMARK  532  A    between atoms: _1769  and  _1772
REMARK  533  A    between atoms: _1772  and  _1773
REMARK  534  A    between atoms: _1791  and  _1793
REMARK  535  A    between atoms: _1792  and  _1794
REMARK  536  A    between atoms: _1814  and  _1815
REMARK  537  A    between atoms: _1814  and  _1817
REMARK  538  A    between atoms: _1817  and  _1818
REMARK  539  A    between atoms: _1817  and  _1819
REMARK  540  A    between atoms: _1818  and  _1820
REMARK  541  A    between atoms: _1833  and  _1834
REMARK  542  A    between atoms: _1834  and  _1835
REMARK  543  A    between atoms: _1840  and  _1841
REMARK  544  A    between atoms: _1841  and  _1842
REMARK  545  A    between atoms: _1841  and  _1844
REMARK  546  A    between atoms: _1844  and  _1845
REMARK  547  A    between atoms: _1845  and  _1846
REMARK  548  A    between atoms: _1857  and  _1858
REMARK  549  A    between atoms: _1858  and  _1859
REMARK  550  A    between atoms: _1858  and  _1861
REMARK  551  A    between atoms: _1861  and  _1862
REMARK  552  A    between atoms: _1877  and  _1878
REMARK  553  A    between atoms: _1878  and  _1879
REMARK  554  A    between atoms: _1884  and  _1885
REMARK  555  A    between atoms: _1885  and  _1886
REMARK  556  A    between atoms: _1885  and  _1888
REMARK  557  A    between atoms: _1888  and  _1889
REMARK  558  A    between atoms: _1888  and  _1890
REMARK  559  A    between atoms: _1900  and  _1901
REMARK  560  A    between atoms: _1901  and  _1902
REMARK  561  A    between atoms: _1907  and  _1908
REMARK  562  A    between atoms: _1908  and  _1909
REMARK  563  A    between atoms: _1908  and  _1911
REMARK  564  A    between atoms: _1911  and  _1912
REMARK  565  A    between atoms: _1927  and  _1928
REMARK  566  A    between atoms: _1928  and  _1929
REMARK  567  A    between atoms: _1928  and  _1931
REMARK  568  A    between atoms: _1931  and  _1932
REMARK  569  A    between atoms: _1937  and  _1938
REMARK  570  A    between atoms: _1948  and  _1949
REMARK  571  A    between atoms: _1949  and  _1950
REMARK  572  A    between atoms: _1949  and  _1952
REMARK  573  A    between atoms: _1952  and  _1953
REMARK  574  A    between atoms: _1959  and  _1960
REMARK  575  A    between atoms: _1960  and  _1961
REMARK  576  A    between atoms: _1960  and  _1963
REMARK  577  A    between atoms: _1969  and  _1970
REMARK  578  A    between atoms: _1970  and  _1971
REMARK  579  A    between atoms: _1970  and  _1973
REMARK  580  A    between atoms: _1973  and  _1974
REMARK  581  A    between atoms: _1979  and  _1980
REMARK  582  A    between atoms: _1990  and  _1991
REMARK  583  A    between atoms: _1991  and  _1992
REMARK  584  A    between atoms: _1991  and  _1994
REMARK  585  A    between atoms: _1994  and  _1995
REMARK  586  A    between atoms: _1995  and  _1996
REMARK  587  A    between atoms: _1995  and  _1997
REMARK  588  A    between atoms: _2009  and  _2010
REMARK  589  A    between atoms: _2010  and  _2011
REMARK  590  A    between atoms: _2010  and  _2013
REMARK  591  A    between atoms: _2013  and  _2014
REMARK  592  A    between atoms: _2013  and  _2015
REMARK  593  A    between atoms: _2025  and  _2026
REMARK  594  A    between atoms: _2026  and  _2027
REMARK  595  A    between atoms: _2026  and  _2029
REMARK  596  A    between atoms: _2035  and  _2036
REMARK  597  A    between atoms: _2036  and  _2037
REMARK  598  A    between atoms: _2036  and  _2039
REMARK  599  A    between atoms: _2039  and  _2040
REMARK  600  A    between atoms: _2040  and  _2041
REMARK  601  A    between atoms: _2050  and  _2051
REMARK  602  A    between atoms: _2051  and  _2052
REMARK  603  A    between atoms: _2051  and  _2054
REMARK  604  A    between atoms: _2054  and  _2055
REMARK  605  A    between atoms: _2055  and  _2056
REMARK  606  A    between atoms: _2056  and  _2057
REMARK  607  A    between atoms: _2057  and  _2058
REMARK  608  A    between atoms: _2072  and  _2073
REMARK  609  A    between atoms: _2073  and  _2074
REMARK  610  A    between atoms: _2073  and  _2076
REMARK  611  A    between atoms: _2076  and  _2077
REMARK  612  A    between atoms: _2076  and  _2078
REMARK  613  A    between atoms: _2088  and  _2089
REMARK  614  A    between atoms: _2089  and  _2090
REMARK  615  A    between atoms: _2089  and  _2092
REMARK  616  A    between atoms: _2092  and  _2093
REMARK  617  A    between atoms: _2092  and  _2094
REMARK  618  A    between atoms: _2102  and  _2103
REMARK  619  A    between atoms: _2103  and  _2104
REMARK  620  A    between atoms: _2103  and  _2106
REMARK  621  A    between atoms: _2106  and  _2107
REMARK  622  A    between atoms: _2106  and  _2108
REMARK  623  A    between atoms: _2118  and  _2119
REMARK  624  A    between atoms: _2119  and  _2120
REMARK  625  A    between atoms: _2119  and  _2122
REMARK  626  A    between atoms: _2122  and  _2123
REMARK  627  A    between atoms: _2122  and  _2124
REMARK  628  A    between atoms: _2123  and  _2125
REMARK  629  A    between atoms: _2137  and  _2138
REMARK  630  A    between atoms: _2138  and  _2139
REMARK  631  A    between atoms: _2138  and  _2141
REMARK  632  A    between atoms: _2141  and  _2142
REMARK  633  A    between atoms: _2141  and  _2143
REMARK  634  A    between atoms: _2151  and  _2152
REMARK  635  A    between atoms: _2152  and  _2153
REMARK  636  A    between atoms: _2152  and  _2155
REMARK  637  A    between atoms: _2155  and  _2156
REMARK  638  A    between atoms: _2156  and  _2157
REMARK  639  A    between atoms: _2157  and  _2158
REMARK  640  A    between atoms: _2158  and  _2159
REMARK  641  A    between atoms: _2173  and  _2174
REMARK  642  A    between atoms: _2174  and  _2175
REMARK  643  A    between atoms: _2174  and  _2177
REMARK  644  A    between atoms: _2177  and  _2178
REMARK  645  A    between atoms: _2190  and  _2191
REMARK  646  A    between atoms: _2191  and  _2192
REMARK  647  A    between atoms: _2191  and  _2194
REMARK  648  A    between atoms: _2194  and  _2195
REMARK  649  A    between atoms: _2204  and  _2205
REMARK  650  A    between atoms: _2205  and  _2206
REMARK  651  A    between atoms: _2205  and  _2208
REMARK  652  A    between atoms: _2208  and  _2209
REMARK  653  A    between atoms: _2216  and  _2217
REMARK  654  A    between atoms: _2217  and  _2218
REMARK  655  A    between atoms: _2217  and  _2220
REMARK  656  A    between atoms: _2220  and  _2221
REMARK  657  A    between atoms: _2228  and  _2229
REMARK  658  A    between atoms: _2229  and  _2230
REMARK  659  A    between atoms: _2229  and  _2232
REMARK  660  A    between atoms: _2232  and  _2233
REMARK  661  A    between atoms: _2233  and  _2234
REMARK  662  A    between atoms: _2243  and  _2244
REMARK  663  A    between atoms: _2244  and  _2245
REMARK  664  A    between atoms: _2244  and  _2247
REMARK  665  A    between atoms: _2247  and  _2248
REMARK  666  A    between atoms: _2248  and  _2249
REMARK  667  A    between atoms: _2260  and  _2261
REMARK  668  A    between atoms: _2261  and  _2262
REMARK  669  A    between atoms: _2261  and  _2264
REMARK  670  A    between atoms: _2264  and  _2265
REMARK  671  A    between atoms: _2270  and  _2271
REMARK  672  A    between atoms: _2281  and  _2282
REMARK  673  A    between atoms: _2282  and  _2283
REMARK  674  A    between atoms: _2282  and  _2285
REMARK  675  A    between atoms: _2291  and  _2292
REMARK  676  A    between atoms: _2292  and  _2293
REMARK  677  A    between atoms: _2292  and  _2295
REMARK  678  A    between atoms: _2295  and  _2296
REMARK  679  A    between atoms: _2315  and  _2316
REMARK  680  A    between atoms: _2316  and  _2317
REMARK  681  A    between atoms: _2316  and  _2319
REMARK  682  A    between atoms: _2319  and  _2320
REMARK  683  A    between atoms: _2320  and  _2321
REMARK  684  A    between atoms: _2330  and  _2331
REMARK  685  A    between atoms: _2331  and  _2332
REMARK  686  A    between atoms: _2331  and  _2334
REMARK  687  A    between atoms: _2334  and  _2335
REMARK  688  A    between atoms: _2341  and  _2342
REMARK  689  A    between atoms: _2342  and  _2343
REMARK  690  A    between atoms: _2342  and  _2345
REMARK  691  A    between atoms: _2345  and  _2346
REMARK  692  A    between atoms: _2352  and  _2353
REMARK  693  A    between atoms: _2353  and  _2354
REMARK  694  A    between atoms: _2353  and  _2356
REMARK  695  A    between atoms: _2362  and  _2363
REMARK  696  A    between atoms: _2363  and  _2364
REMARK  697  A    between atoms: _2369  and  _2370
REMARK  698  A    between atoms: _2370  and  _2371
REMARK  699  A    between atoms: _2376  and  _2377
REMARK  700  A    between atoms: _2377  and  _2378
REMARK  701  A    between atoms: _2377  and  _2380
REMARK  702  A    between atoms: _2380  and  _2381
REMARK  703  A    between atoms: _2387  and  _2388
REMARK  704  A    between atoms: _2388  and  _2389
REMARK  705  A    between atoms: _2388  and  _2391
REMARK  706  A    between atoms: _2391  and  _2392
REMARK  707  A    between atoms: _2407  and  _2408
REMARK  708  A    between atoms: _2408  and  _2409
REMARK  709  A    between atoms: _2408  and  _2411
REMARK  710  A    between atoms: _2411  and  _2412
REMARK  711  A    between atoms: _2411  and  _2413
REMARK  712  A    between atoms: _2421  and  _2422
REMARK  713  A    between atoms: _2422  and  _2423
REMARK  714  A    between atoms: _2422  and  _2425
REMARK  715  A    between atoms: _2425  and  _2426
REMARK  716  A    between atoms: _2425  and  _2427
REMARK  717  A    between atoms: _2437  and  _2438
REMARK  718  A    between atoms: _2438  and  _2439
REMARK  719  A    between atoms: _2438  and  _2441
REMARK  720  A    between atoms: _2441  and  _2442
REMARK  721  A    between atoms: _2442  and  _2443
REMARK  722  A    between atoms: _2443  and  _2444
REMARK  723  A    between atoms: _2461  and  _2462
REMARK  724  A    between atoms: _2462  and  _2463
REMARK  725  A    between atoms: _2462  and  _2465
REMARK  726  A    between atoms: _2465  and  _2466
REMARK  727  A    between atoms: _2465  and  _2467
REMARK  728  A    between atoms: _2475  and  _2476
REMARK  729  A    between atoms: _2476  and  _2477
REMARK  730  A    between atoms: _2476  and  _2479
REMARK  731  A    between atoms: _2479  and  _2480
REMARK  732  A    between atoms: _2487  and  _2488
REMARK  733  A    between atoms: _2488  and  _2489
REMARK  734  A    between atoms: _2488  and  _2491
REMARK  735  A    between atoms: _2491  and  _2492
REMARK  736  A    between atoms: _2491  and  _2493
REMARK  737  A    between atoms: _2501  and  _2502
REMARK  738  A    between atoms: _2502  and  _2503
REMARK  739  A    between atoms: _2508  and  _2509
REMARK  740  A    between atoms: _2509  and  _2510
REMARK  741  A    between atoms: _2509  and  _2512
REMARK  742  A    between atoms: _2512  and  _2513
REMARK  743  A    between atoms: _2513  and  _2514
REMARK  744  A    between atoms: _2524  and  _2525
REMARK  745  A    between atoms: _2537  and  _2538
REMARK  746  A    between atoms: _2538  and  _2539
REMARK  747  A    between atoms: _2538  and  _2541
REMARK  748  A    between atoms: _2541  and  _2542
REMARK  749  A    between atoms: _2542  and  _2543
REMARK  750  A    between atoms: _2543  and  _2544
REMARK  751  A    between atoms: _2554  and  _2555
REMARK  752  A    between atoms: _2555  and  _2556
REMARK  753  A    between atoms: _2561  and  _2562
REMARK  754  A    between atoms: _2562  and  _2563
REMARK  755  A    between atoms: _2562  and  _2565
REMARK  756  A    between atoms: _2565  and  _2566
REMARK  757  A    between atoms: _2566  and  _2567
REMARK  758  A    between atoms: _2567  and  _2568
REMARK  759  A    between atoms: _2585  and  _2586
REMARK  760  A    between atoms: _2586  and  _2587
REMARK  761  A    between atoms: _2592  and  _2593
REMARK  762  A    between atoms: _2593  and  _2594
REMARK  763  A    between atoms: _2593  and  _2596
REMARK  764  A    between atoms: _2596  and  _2597
REMARK  765  A    between atoms: _2596  and  _2598
REMARK  766  A    between atoms: _2606  and  _2607
REMARK  767  A    between atoms: _2607  and  _2608
REMARK  768  A    between atoms: _2607  and  _2610
REMARK  769  A    between atoms: _2610  and  _2611
REMARK  770  A    between atoms: _2611  and  _2612
REMARK  771  A    between atoms: _2612  and  _2613
REMARK  772  A    between atoms: _2613  and  _2614
REMARK  773  A    between atoms: _2628  and  _2629
REMARK  774  A    between atoms: _2629  and  _2630
REMARK  775  A    between atoms: _2629  and  _2632
REMARK  776  A    between atoms: _2632  and  _2633
REMARK  777  A    between atoms: _2632  and  _2634
REMARK  778  A    between atoms: _2644  and  _2645
REMARK  779  A    between atoms: _2645  and  _2646
REMARK  780  A    between atoms: _2645  and  _2648
REMARK  781  A    between atoms: _2648  and  _2649
REMARK  782  A    between atoms: _2648  and  _2650
REMARK  783  A    between atoms: _2649  and  _2651
REMARK  784  A    between atoms: _2663  and  _2664
REMARK  785  A    between atoms: _2664  and  _2665
REMARK  786  A    between atoms: _2664  and  _2667
REMARK  787  A    between atoms: _2667  and  _2668
REMARK  788  A    between atoms: _2668  and  _2669
REMARK  789  A    between atoms: _2668  and  _2670
REMARK  790  A    between atoms: _2682  and  _2683
REMARK  791  A    between atoms: _2683  and  _2684
REMARK  792  A    between atoms: _2683  and  _2686
REMARK  793  A    between atoms: _2686  and  _2687
REMARK  794  A    between atoms: _2699  and  _2700
REMARK  795  A    between atoms: _2700  and  _2701
REMARK  796  A    between atoms: _2700  and  _2703
REMARK  797  A    between atoms: _2703  and  _2704
REMARK  798  A    between atoms: _2704  and  _2705
REMARK  799  A    between atoms: _2704  and  _2706
REMARK  800  A    between atoms: _2718  and  _2719
REMARK  801  A    between atoms: _2719  and  _2720
REMARK  802  A    between atoms: _2719  and  _2722
REMARK  803  A    between atoms: _2722  and  _2723
REMARK  804  A    between atoms: _2723  and  _2724
REMARK  805  A    between atoms: _2724  and  _2725
REMARK  806  A    between atoms: _2725  and  _2726
REMARK  807  A    between atoms: _2740  and  _2741
REMARK  808  A    between atoms: _2741  and  _2742
REMARK  809  A    between atoms: _2741  and  _2744
REMARK  810  A    between atoms: _2744  and  _2745
REMARK  811  A    between atoms: _2745  and  _2746
REMARK  812  A    between atoms: _2755  and  _2756
REMARK  813  A    between atoms: _2756  and  _2757
REMARK  814  A    between atoms: _2756  and  _2759
REMARK  815  A    between atoms: _2759  and  _2760
REMARK  816  A    between atoms: _2767  and  _2768
REMARK  817  A    between atoms: _2768  and  _2769
REMARK  818  A    between atoms: _2768  and  _2771
REMARK  819  A    between atoms: _2771  and  _2772
REMARK  820  A    between atoms: _2772  and  _2773
REMARK  821  A    between atoms: _2784  and  _2785
REMARK  822  A    between atoms: _2785  and  _2786
REMARK  823  A    between atoms: _2785  and  _2788
REMARK  824  A    between atoms: _2788  and  _2789
REMARK  825  A    between atoms: _2788  and  _2790
REMARK  826  A    between atoms: _2798  and  _2799
REMARK  827  A    between atoms: _2799  and  _2800
REMARK  828  A    between atoms: _2799  and  _2802
REMARK  829  A    between atoms: _2802  and  _2803
REMARK  830  A    between atoms: _2803  and  _2804
REMARK  831  A    between atoms: _2813  and  _2814
REMARK  832  A    between atoms: _2814  and  _2815
REMARK  833  A    between atoms: _2814  and  _2817
REMARK  834  A    between atoms: _2817  and  _2818
REMARK  835  A    between atoms: _2823  and  _2824
REMARK  836  A    between atoms: _2834  and  _2835
REMARK  837  A    between atoms: _2835  and  _2838
REMARK  838  A    between atoms: _2838  and  _2839
REMARK  839  A    between atoms: _2839  and  _2840
REMARK  840  A    between atoms: _2839  and  _2841
REMARK  841  A    between atoms: _2884  and  _2885
REMARK  842  A    between atoms: _2884  and  _2887
REMARK  843  A    between atoms: _2887  and  _2888
REMARK  844  A    between atoms: _2888  and  _2889
REMARK  845  A    between atoms: _2899  and  _2900
REMARK  846  A    between atoms: _2900  and  _2901
REMARK  847  A    between atoms: _2900  and  _2903
REMARK  848  A    between atoms: _2903  and  _2904
REMARK  849  A    between atoms: _2904  and  _2905
REMARK  850  A    between atoms: _2905  and  _2906
REMARK  851  A    between atoms: _2923  and  _2924
REMARK  852  A    between atoms: _2924  and  _2925
REMARK  853  A    between atoms: _2924  and  _2927
REMARK  854  A    between atoms: _2927  and  _2928
REMARK  855  A    between atoms: _2928  and  _2929
REMARK  856  A    between atoms: _2929  and  _2930
REMARK  857  A    between atoms: _2947  and  _2948
REMARK  858  A    between atoms: _2948  and  _2949
REMARK  859  A    between atoms: _2948  and  _2951
REMARK  860  A    between atoms: _2951  and  _2952
REMARK  861  A    between atoms: _2951  and  _2953
REMARK  862  A    between atoms: _2952  and  _2954
REMARK  863  A    between atoms: _2966  and  _2967
REMARK  864  A    between atoms: _2967  and  _2968
REMARK  865  A    between atoms: _2967  and  _2970
REMARK  866  A    between atoms: _2970  and  _2971
REMARK  867  A    between atoms: _2971  and  _2972
REMARK  868  A    between atoms: _2972  and  _2973
REMARK  869  A    between atoms: _2973  and  _2974
REMARK  870  A    between atoms: _2988  and  _2989
REMARK  871  A    between atoms: _2989  and  _2990
REMARK  872  A    between atoms: _2989  and  _2992
REMARK  873  A    between atoms: _2992  and  _2993
REMARK  874  A    between atoms: _2993  and  _2994
REMARK  875  A    between atoms: _3003  and  _3004
REMARK  876  A    between atoms: _3004  and  _3005
REMARK  877  A    between atoms: _3004  and  _3007
REMARK  878  A    between atoms: _3007  and  _3008
REMARK  879  A    between atoms: _3007  and  _3009
REMARK  880  A    between atoms: _3008  and  _3010
REMARK  881  A    between atoms: _3022  and  _3023
REMARK  882  A    between atoms: _3023  and  _3024
REMARK  883  A    between atoms: _3023  and  _3026
REMARK  884  A    between atoms: _3026  and  _3027
REMARK  885  A    between atoms: _3026  and  _3028
REMARK  886  A    between atoms: _3038  and  _3039
REMARK  887  A    between atoms: _3039  and  _3040
REMARK  888  A    between atoms: _3039  and  _3042
REMARK  889  A    between atoms: _3042  and  _3043
REMARK  890  A    between atoms: _3043  and  _3044
REMARK  891  A    between atoms: _3044  and  _3045
REMARK  892  A    between atoms: _3045  and  _3046
REMARK  893  A    between atoms: _3060  and  _3061
REMARK  894  A    between atoms: _3061  and  _3062
REMARK  895  A    between atoms: _3061  and  _3064
REMARK  896  A    between atoms: _3064  and  _3065
REMARK  897  A    between atoms: _3065  and  _3066
REMARK  898  A    between atoms: _3066  and  _3067
REMARK  899  A    between atoms: _3067  and  _3068
REMARK  900  A    between atoms: _3082  and  _3083
REMARK  901  A    between atoms: _3083  and  _3084
REMARK  902  A    between atoms: _3083  and  _3086
REMARK  903  A    between atoms: _3086  and  _3087
REMARK  904  A    between atoms: _3099  and  _3100
REMARK  905  A    between atoms: _3100  and  _3101
REMARK  906  A    between atoms: _3100  and  _3103
REMARK  907  A    between atoms: _3103  and  _3104
REMARK  908  A    between atoms: _3110  and  _3111
REMARK  909  A    between atoms: _3111  and  _3112
REMARK  910  A    between atoms: _3111  and  _3114
REMARK  911  A    between atoms: _3114  and  _3115
REMARK  912  A    between atoms: _3115  and  _3116
REMARK  913  A    between atoms: _3127  and  _3128
REMARK  914  A    between atoms: _3128  and  _3129
REMARK  915  A    between atoms: _3128  and  _3131
REMARK  916  A    between atoms: _3131  and  _3132
REMARK  917  A    between atoms: _3147  and  _3148
REMARK  918  A    between atoms: _3148  and  _3149
REMARK  919  A    between atoms: _3148  and  _3151
REMARK  920  A    between atoms: _3151  and  _3152
REMARK  921  A    between atoms: _3151  and  _3153
REMARK  922  A    between atoms: _3152  and  _3154
REMARK  923  A    between atoms: _3166  and  _3167
REMARK  924  A    between atoms: _3167  and  _3168
REMARK  925  A    between atoms: _3173  and  _3174
REMARK  926  A    between atoms: _3174  and  _3175
REMARK  927  A    between atoms: _3174  and  _3177
REMARK  928  A    between atoms: _3177  and  _3178
REMARK  929  A    between atoms: _3183  and  _3184
REMARK  930  A    between atoms: _3195  and  _3196
REMARK  931  A    between atoms: _3208  and  _3209
REMARK  932  A    between atoms: _3209  and  _3210
REMARK  933  A    between atoms: _3209  and  _3212
REMARK  934  A    between atoms: _3212  and  _3213
REMARK  935  A    between atoms: _3212  and  _3214
REMARK  936  A    between atoms: _3213  and  _3215
REMARK  937  A    between atoms: _3227  and  _3228
REMARK  938  A    between atoms: _3228  and  _3229
REMARK  939  A    between atoms: _3228  and  _3231
REMARK  940  A    between atoms: _3231  and  _3232
REMARK  941  A    between atoms: _3231  and  _3233
REMARK  942  A    between atoms: _3241  and  _3242
REMARK  943  A    between atoms: _3242  and  _3243
REMARK  944  A    between atoms: _3242  and  _3245
REMARK  945  A    between atoms: _3245  and  _3246
REMARK  946  A    between atoms: _3246  and  _3247
REMARK  947  A    between atoms: _3246  and  _3248
REMARK  948  A    between atoms: _3260  and  _3261
REMARK  949  A    between atoms: _3261  and  _3262
REMARK  950  A    between atoms: _3261  and  _3264
REMARK  951  A    between atoms: _3264  and  _3265
REMARK  952  A    between atoms: _3280  and  _3281
REMARK  953  A    between atoms: _3281  and  _3282
REMARK  954  A    between atoms: _3281  and  _3284
REMARK  955  A    between atoms: _3284  and  _3285
REMARK  956  A    between atoms: _3284  and  _3286
REMARK  957  A    between atoms: _3296  and  _3297
REMARK  958  A    between atoms: _3297  and  _3298
REMARK  959  A    between atoms: _3297  and  _3300
REMARK  960  A    between atoms: _3300  and  _3301
REMARK  961  A    between atoms: _3301  and  _3302
REMARK                            x       y       z     vdW  Elec       q    Type
REMARK                         _______ _______ _______ _____ _____    ______ ____
ROOT
ATOM      1  C   UNL     1     -10.383  21.271  40.828  0.00  0.00    +0.000 C 
ENDROOT
TORSDOF 0
REMARK  Name = /Users/mlugowska/PhD/ML_residence_time_prediction/protein_files/5J20_protein.pdb
REMARK  961 active torsions:
REMARK  status: ('A' for Active; 'I' for Inactive)
REMARK    1  A    between atoms: _2  and  _3
REMARK    2  A    between atoms: _2  and  _5
REMARK    3  A    between atoms: _10  and  _11
REMARK    4  A    between atoms: _11  and  _12
REMARK    5  A    between atoms: _11  and  _14
REMARK    6  A    between atoms: _14  and  _15
REMARK    7  A    between atoms: _14  and  _16
REMARK    8  A    between atoms: _26  and  _27
REMARK    9  A    between atoms: _27  and  _28
REMARK   10  A    between atoms: _27  and  _30
REMARK   11  A    between atoms: _30  and  _31
REMARK   12  A    between atoms: _31  and  _32
REMARK   13  A    between atoms: _41  and  _42
REMARK   14  A    between atoms: _42  and  _43
REMARK   15  A    between atoms: _42  and  _45
REMARK   16  A    between atoms: _45  and  _46
REMARK   17  A    between atoms: _45  and  _47
REMARK   18  A    between atoms: _55  and  _56
REMARK   19  A    between atoms: _56  and  _57
REMARK   20  A    between atoms: _56  and  _59
REMARK   21  A    between atoms: _59  and  _60
REMARK   22  A    between atoms: _75  and  _76
REMARK   23  A    between atoms: _76  and  _77
REMARK   24  A    between atoms: _76  and  _79
REMARK   25  A    between atoms: _85  and  _86
REMARK   26  A    between atoms: _86  and  _87
REMARK   27  A    between atoms: _86  and  _89
REMARK   28  A    between atoms: _89  and  _90
REMARK   29  A    between atoms: _105  and  _106
REMARK   30  A    between atoms: _106  and  _107
REMARK   31  A    between atoms: _106  and  _109
REMARK   32  A    between atoms: _109  and  _110
REMARK   33  A    between atoms: _110  and  _111
REMARK   34  A    between atoms: _122  and  _123
REMARK   35  A    between atoms: _123  and  _124
REMARK   36  A    between atoms: _123  and  _126
REMARK   37  A    between atoms: _132  and  _133
REMARK   38  A    between atoms: _133  and  _134
REMARK   39  A    between atoms: _133  and  _136
REMARK   40  A    between atoms: _136  and  _137
REMARK   41  A    between atoms: _137  and  _138
REMARK   42  A    between atoms: _147  and  _148
REMARK   43  A    between atoms: _148  and  _149
REMARK   44  A    between atoms: _148  and  _151
REMARK   45  A    between atoms: _151  and  _152
REMARK   46  A    between atoms: _151  and  _153
REMARK   47  A    between atoms: _152  and  _154
REMARK   48  A    between atoms: _166  and  _167
REMARK   49  A    between atoms: _167  and  _168
REMARK   50  A    between atoms: _167  and  _170
REMARK   51  A    between atoms: _176  and  _177
REMARK   52  A    between atoms: _177  and  _178
REMARK   53  A    between atoms: _177  and  _180
REMARK   54  A    between atoms: _180  and  _181
REMARK   55  A    between atoms: _181  and  _182
REMARK   56  A    between atoms: _193  and  _194
REMARK   57  A    between atoms: _194  and  _195
REMARK   58  A    between atoms: _194  and  _197
REMARK   59  A    between atoms: _197  and  _198
REMARK   60  A    between atoms: _198  and  _199
REMARK   61  A    between atoms: _198  and  _200
REMARK   62  A    between atoms: _212  and  _213
REMARK   63  A    between atoms: _213  and  _214
REMARK   64  A    between atoms: _213  and  _216
REMARK   65  A    between atoms: _216  and  _217
REMARK   66  A    between atoms: _217  and  _218
REMARK   67  A    between atoms: _218  and  _219
REMARK   68  A    between atoms: _229  and  _230
REMARK   69  A    between atoms: _230  and  _231
REMARK   70  A    between atoms: _230  and  _233
REMARK   71  A    between atoms: _233  and  _234
REMARK   72  A    between atoms: _240  and  _241
REMARK   73  A    between atoms: _241  and  _242
REMARK   74  A    between atoms: _241  and  _244
REMARK   75  A    between atoms: _244  and  _245
REMARK   76  A    between atoms: _245  and  _246
REMARK   77  A    between atoms: _245  and  _247
REMARK   78  A    between atoms: _259  and  _260
REMARK   79  A    between atoms: _260  and  _261
REMARK   80  A    between atoms: _260  and  _263
REMARK   81  A    between atoms: _263  and  _264
REMARK   82  A    between atoms: _263  and  _265
REMARK   83  A    between atoms: _264  and  _266
REMARK   84  A    between atoms: _278  and  _279
REMARK   85  A    between atoms: _279  and  _280
REMARK   86  A    between atoms: _279  and  _282
REMARK   87  A    between atoms: _282  and  _283
REMARK   88  A    between atoms: _282  and  _284
REMARK   89  A    between atoms: _283  and  _285
REMARK   90  A    between atoms: _297  and  _298
REMARK   91  A    between atoms: _298  and  _299
REMARK   92  A    between atoms: _298  and  _301
REMARK   93  A    between atoms: _301  and  _302
REMARK   94  A    between atoms: _311  and  _312
REMARK   95  A    between atoms: _312  and  _313
REMARK   96  A    between atoms: _312  and  _315
REMARK   97  A    between atoms: _315  and  _316
REMARK   98  A    between atoms: _315  and  _317
REMARK   99  A    between atoms: _325  and  _326
REMARK  100  A    between atoms: _326  and  _327
REMARK  101  A    between atoms: _326  and  _329
REMARK  102  A    between atoms: _329  and  _330
REMARK  103  A    between atoms: _345  and  _346
REMARK  104  A    between atoms: _346  and  _347
REMARK  105  A    between atoms: _346  and  _349
REMARK  106  A    between atoms: _349  and  _350
REMARK  107  A    between atoms: _355  and  _356
REMARK  108  A    between atoms: _366  and  _367
REMARK  109  A    between atoms: _367  and  _368
REMARK  110  A    between atoms: _367  and  _370
REMARK  111  A    between atoms: _370  and  _371
REMARK  112  A    between atoms: _377  and  _378
REMARK  113  A    between atoms: _378  and  _379
REMARK  114  A    between atoms: _378  and  _381
REMARK  115  A    between atoms: _381  and  _382
REMARK  116  A    between atoms: _391  and  _392
REMARK  117  A    between atoms: _392  and  _393
REMARK  118  A    between atoms: _392  and  _395
REMARK  119  A    between atoms: _395  and  _396
REMARK  120  A    between atoms: _396  and  _397
REMARK  121  A    between atoms: _397  and  _398
REMARK  122  A    between atoms: _398  and  _399
REMARK  123  A    between atoms: _413  and  _414
REMARK  124  A    between atoms: _414  and  _415
REMARK  125  A    between atoms: _414  and  _417
REMARK  126  A    between atoms: _417  and  _418
REMARK  127  A    between atoms: _418  and  _419
REMARK  128  A    between atoms: _428  and  _429
REMARK  129  A    between atoms: _429  and  _430
REMARK  130  A    between atoms: _429  and  _432
REMARK  131  A    between atoms: _432  and  _433
REMARK  132  A    between atoms: _432  and  _434
REMARK  133  A    between atoms: _433  and  _435
REMARK  134  A    between atoms: _447  and  _448
REMARK  135  A    between atoms: _448  and  _449
REMARK  136  A    between atoms: _448  and  _451
REMARK  137  A    between atoms: _451  and  _452
REMARK  138  A    between atoms: _467  and  _468
REMARK  139  A    between atoms: _468  and  _469
REMARK  140  A    between atoms: _468  and  _471
REMARK  141  A    between atoms: _471  and  _472
REMARK  142  A    between atoms: _472  and  _473
REMARK  143  A    between atoms: _472  and  _474
REMARK  144  A    between atoms: _486  and  _487
REMARK  145  A    between atoms: _487  and  _488
REMARK  146  A    between atoms: _487  and  _490
REMARK  147  A    between atoms: _490  and  _491
REMARK  148  A    between atoms: _491  and  _492
REMARK  149  A    between atoms: _492  and  _493
REMARK  150  A    between atoms: _510  and  _511
REMARK  151  A    between atoms: _511  and  _512
REMARK  152  A    between atoms: _511  and  _514
REMARK  153  A    between atoms: _514  and  _515
REMARK  154  A    between atoms: _515  and  _516
REMARK  155  A    between atoms: _525  and  _526
REMARK  156  A    between atoms: _526  and  _527
REMARK  157  A    between atoms: _526  and  _529
REMARK  158  A    between atoms: _529  and  _530
REMARK  159  A    between atoms: _530  and  _531
REMARK  160  A    between atoms: _530  and  _532
REMARK  161  A    between atoms: _544  and  _545
REMARK  162  A    between atoms: _545  and  _546
REMARK  163  A    between atoms: _545  and  _548
REMARK  164  A    between atoms: _548  and  _549
REMARK  165  A    between atoms: _548  and  _550
REMARK  166  A    between atoms: _549  and  _551
REMARK  167  A    between atoms: _563  and  _564
REMARK  168  A    between atoms: _564  and  _565
REMARK  169  A    between atoms: _564  and  _567
REMARK  170  A    between atoms: _567  and  _568
REMARK  171  A    between atoms: _574  and  _575
REMARK  172  A    between atoms: _575  and  _576
REMARK  173  A    between atoms: _575  and  _578
REMARK  174  A    between atoms: _578  and  _579
REMARK  175  A    between atoms: _588  and  _589
REMARK  176  A    between atoms: _589  and  _590
REMARK  177  A    between atoms: _589  and  _592
REMARK  178  A    between atoms: _592  and  _593
REMARK  179  A    between atoms: _599  and  _600
REMARK  180  A    between atoms: _600  and  _601
REMARK  181  A    between atoms: _600  and  _603
REMARK  182  A    between atoms: _603  and  _604
REMARK  183  A    between atoms: _610  and  _611
REMARK  184  A    between atoms: _611  and  _612
REMARK  185  A    between atoms: _611  and  _614
REMARK  186  A    between atoms: _614  and  _615
REMARK  187  A    between atoms: _622  and  _623
REMARK  188  A    between atoms: _623  and  _624
REMARK  189  A    between atoms: _623  and  _626
REMARK  190  A    between atoms: _632  and  _633
REMARK  191  A    between atoms: _633  and  _634
REMARK  192  A    between atoms: _633  and  _636
REMARK  193  A    between atoms: _636  and  _637
REMARK  194  A    between atoms: _637  and  _638
REMARK  195  A    between atoms: _637  and  _639
REMARK  196  A    between atoms: _651  and  _652
REMARK  197  A    between atoms: _652  and  _653
REMARK  198  A    between atoms: _652  and  _655
REMARK  199  A    between atoms: _655  and  _656
REMARK  200  A    between atoms: _663  and  _664
REMARK  201  A    between atoms: _664  and  _665
REMARK  202  A    between atoms: _664  and  _667
REMARK  203  A    between atoms: _667  and  _668
REMARK  204  A    between atoms: _668  and  _669
REMARK  205  A    between atoms: _669  and  _670
REMARK  206  A    between atoms: _670  and  _671
REMARK  207  A    between atoms: _685  and  _686
REMARK  208  A    between atoms: _686  and  _687
REMARK  209  A    between atoms: _686  and  _689
REMARK  210  A    between atoms: _689  and  _690
REMARK  211  A    between atoms: _689  and  _691
REMARK  212  A    between atoms: _690  and  _692
REMARK  213  A    between atoms: _704  and  _705
REMARK  214  A    between atoms: _705  and  _706
REMARK  215  A    between atoms: _705  and  _708
REMARK  216  A    between atoms: _708  and  _709
REMARK  217  A    between atoms: _709  and  _710
REMARK  218  A    between atoms: _710  and  _711
REMARK  219  A    between atoms: _728  and  _729
REMARK  220  A    between atoms: _729  and  _730
REMARK  221  A    between atoms: _729  and  _732
REMARK  222  A    between atoms: _732  and  _733
REMARK  223  A    between atoms: _738  and  _739
REMARK  224  A    between atoms: _749  and  _750
REMARK  225  A    between atoms: _750  and  _751
REMARK  226  A    between atoms: _750  and  _753
REMARK  227  A    between atoms: _753  and  _754
REMARK  228  A    between atoms: _754  and  _755
REMARK  229  A    between atoms: _764  and  _765
REMARK  230  A    between atoms: _765  and  _766
REMARK  231  A    between atoms: _765  and  _768
REMARK  232  A    between atoms: _772  and  _773
REMARK  233  A    between atoms: _773  and  _774
REMARK  234  A    between atoms: _773  and  _776
REMARK  235  A    between atoms: _776  and  _777
REMARK  236  A    between atoms: _777  and  _778
REMARK  237  A    between atoms: _777  and  _779
REMARK  238  A    between atoms: _791  and  _792
REMARK  239  A    between atoms: _792  and  _793
REMARK  240  A    between atoms: _792  and  _795
REMARK  241  A    between atoms: _795  and  _796
REMARK  242  A    between atoms: _795  and  _797
REMARK  243  A    between atoms: _805  and  _806
REMARK  244  A    between atoms: _806  and  _807
REMARK  245  A    between atoms: _806  and  _809
REMARK  246  A    between atoms: _809  and  _810
REMARK  247  A    between atoms: _818  and  _819
REMARK  248  A    between atoms: _831  and  _832
REMARK  249  A    between atoms: _832  and  _833
REMARK  250  A    between atoms: _832  and  _835
REMARK  251  A    between atoms: _835  and  _836
REMARK  252  A    between atoms: _842  and  _843
REMARK  253  A    between atoms: _843  and  _844
REMARK  254  A    between atoms: _843  and  _846
REMARK  255  A    between atoms: _846  and  _847
REMARK  256  A    between atoms: _847  and  _848
REMARK  257  A    between atoms: _848  and  _849
REMARK  258  A    between atoms: _849  and  _850
REMARK  259  A    between atoms: _864  and  _865
REMARK  260  A    between atoms: _865  and  _866
REMARK  261  A    between atoms: _865  and  _868
REMARK  262  A    between atoms: _868  and  _869
REMARK  263  A    between atoms: _869  and  _870
REMARK  264  A    between atoms: _869  and  _871
REMARK  265  A    between atoms: _883  and  _884
REMARK  266  A    between atoms: _884  and  _885
REMARK  267  A    between atoms: _884  and  _887
REMARK  268  A    between atoms: _887  and  _888
REMARK  269  A    between atoms: _895  and  _896
REMARK  270  A    between atoms: _896  and  _897
REMARK  271  A    between atoms: _896  and  _899
REMARK  272  A    between atoms: _899  and  _900
REMARK  273  A    between atoms: _906  and  _907
REMARK  274  A    between atoms: _907  and  _908
REMARK  275  A    between atoms: _913  and  _914
REMARK  276  A    between atoms: _914  and  _915
REMARK  277  A    between atoms: _914  and  _917
REMARK  278  A    between atoms: _917  and  _918
REMARK  279  A    between atoms: _918  and  _919
REMARK  280  A    between atoms: _919  and  _920
REMARK  281  A    between atoms: _920  and  _921
REMARK  282  A    between atoms: _935  and  _936
REMARK  283  A    between atoms: _936  and  _937
REMARK  284  A    between atoms: _936  and  _939
REMARK  285  A    between atoms: _939  and  _940
REMARK  286  A    between atoms: _940  and  _941
REMARK  287  A    between atoms: _950  and  _951
REMARK  288  A    between atoms: _951  and  _952
REMARK  289  A    between atoms: _951  and  _954
REMARK  290  A    between atoms: _954  and  _955
REMARK  291  A    between atoms: _955  and  _956
REMARK  292  A    between atoms: _955  and  _957
REMARK  293  A    between atoms: _969  and  _970
REMARK  294  A    between atoms: _970  and  _971
REMARK  295  A    between atoms: _970  and  _973
REMARK  296  A    between atoms: _973  and  _974
REMARK  297  A    between atoms: _986  and  _987
REMARK  298  A    between atoms: _987  and  _988
REMARK  299  A    between atoms: _987  and  _990
REMARK  300  A    between atoms: _990  and  _991
REMARK  301  A    between atoms: _990  and  _992
REMARK  302  A    between atoms: _991  and  _993
REMARK  303  A    between atoms: _1005  and  _1006
REMARK  304  A    between atoms: _1006  and  _1007
REMARK  305  A    between atoms: _1006  and  _1009
REMARK  306  A    between atoms: _1009  and  _1010
REMARK  307  A    between atoms: _1019  and  _1020
REMARK  308  A    between atoms: _1020  and  _1021
REMARK  309  A    between atoms: _1020  and  _1023
REMARK  310  A    between atoms: _1023  and  _1024
REMARK  311  A    between atoms: _1024  and  _1025
REMARK  312  A    between atoms: _1024  and  _1026
REMARK  313  A    between atoms: _1038  and  _1039
REMARK  314  A    between atoms: _1039  and  _1040
REMARK  315  A    between atoms: _1039  and  _1042
REMARK  316  A    between atoms: _1042  and  _1043
REMARK  317  A    between atoms: _1042  and  _1044
REMARK  318  A    between atoms: _1043  and  _1045
REMARK  319  A    between atoms: _1058  and  _1059
REMARK  320  A    between atoms: _1071  and  _1072
REMARK  321  A    between atoms: _1072  and  _1073
REMARK  322  A    between atoms: _1072  and  _1075
REMARK  323  A    between atoms: _1075  and  _1076
REMARK  324  A    between atoms: _1085  and  _1086
REMARK  325  A    between atoms: _1086  and  _1087
REMARK  326  A    between atoms: _1086  and  _1089
REMARK  327  A    between atoms: _1089  and  _1090
REMARK  328  A    between atoms: _1090  and  _1091
REMARK  329  A    between atoms: _1091  and  _1092
REMARK  330  A    between atoms: _1092  and  _1093
REMARK  331  A    between atoms: _1107  and  _1108
REMARK  332  A    between atoms: _1108  and  _1109
REMARK  333  A    between atoms: _1108  and  _1111
REMARK  334  A    between atoms: _1111  and  _1112
REMARK  335  A    between atoms: _1112  and  _1113
REMARK  336  A    between atoms: _1124  and  _1125
REMARK  337  A    between atoms: _1125  and  _1126
REMARK  338  A    between atoms: _1125  and  _1128
REMARK  339  A    between atoms: _1128  and  _1129
REMARK  340  A    between atoms: _1136  and  _1137
REMARK  341  A    between atoms: _1137  and  _1138
REMARK  342  A    between atoms: _1137  and  _1140
REMARK  343  A    between atoms: _1140  and  _1141
REMARK  344  A    between atoms: _1141  and  _1142
REMARK  345  A    between atoms: _1142  and  _1143
REMARK  346  A    between atoms: _1160  and  _1161
REMARK  347  A    between atoms: _1161  and  _1162
REMARK  348  A    between atoms: _1161  and  _1164
REMARK  349  A    between atoms: _1164  and  _1165
REMARK  350  A    between atoms: _1164  and  _1166
REMARK  351  A    between atoms: _1174  and  _1175
REMARK  352  A    between atoms: _1175  and  _1176
REMARK  353  A    between atoms: _1175  and  _1178
REMARK  354  A    between atoms: _1178  and  _1179
REMARK  355  A    between atoms: _1179  and  _1180
REMARK  356  A    between atoms: _1179  and  _1181
REMARK  357  A    between atoms: _1193  and  _1194
REMARK  358  A    between atoms: _1194  and  _1195
REMARK  359  A    between atoms: _1194  and  _1197
REMARK  360  A    between atoms: _1197  and  _1198
REMARK  361  A    between atoms: _1197  and  _1199
REMARK  362  A    between atoms: _1207  and  _1208
REMARK  363  A    between atoms: _1208  and  _1209
REMARK  364  A    between atoms: _1208  and  _1211
REMARK  365  A    between atoms: _1211  and  _1212
REMARK  366  A    between atoms: _1211  and  _1213
REMARK  367  A    between atoms: _1212  and  _1214
REMARK  368  A    between atoms: _1226  and  _1227
REMARK  369  A    between atoms: _1227  and  _1228
REMARK  370  A    between atoms: _1227  and  _1230
REMARK  371  A    between atoms: _1230  and  _1231
REMARK  372  A    between atoms: _1230  and  _1232
REMARK  373  A    between atoms: _1242  and  _1243
REMARK  374  A    between atoms: _1243  and  _1244
REMARK  375  A    between atoms: _1243  and  _1246
REMARK  376  A    between atoms: _1246  and  _1247
REMARK  377  A    between atoms: _1254  and  _1255
REMARK  378  A    between atoms: _1255  and  _1256
REMARK  379  A    between atoms: _1255  and  _1258
REMARK  380  A    between atoms: _1258  and  _1259
REMARK  381  A    between atoms: _1258  and  _1260
REMARK  382  A    between atoms: _1268  and  _1269
REMARK  383  A    between atoms: _1269  and  _1270
REMARK  384  A    between atoms: _1275  and  _1276
REMARK  385  A    between atoms: _1276  and  _1277
REMARK  386  A    between atoms: _1276  and  _1279
REMARK  387  A    between atoms: _1279  and  _1280
REMARK  388  A    between atoms: _1279  and  _1281
REMARK  389  A    between atoms: _1280  and  _1282
REMARK  390  A    between atoms: _1294  and  _1295
REMARK  391  A    between atoms: _1295  and  _1296
REMARK  392  A    between atoms: _1301  and  _1302
REMARK  393  A    between atoms: _1302  and  _1303
REMARK  394  A    between atoms: _1302  and  _1305
REMARK  395  A    between atoms: _1305  and  _1306
REMARK  396  A    between atoms: _1306  and  _1307
REMARK  397  A    between atoms: _1307  and  _1308
REMARK  398  A    between atoms: _1318  and  _1319
REMARK  399  A    between atoms: _1319  and  _1320
REMARK  400  A    between atoms: _1319  and  _1322
REMARK  401  A    between atoms: _1322  and  _1323
REMARK  402  A    between atoms: _1322  and  _1324
REMARK  403  A    between atoms: _1332  and  _1333
REMARK  404  A    between atoms: _1333  and  _1334
REMARK  405  A    between atoms: _1333  and  _1336
REMARK  406  A    between atoms: _1336  and  _1337
REMARK  407  A    between atoms: _1337  and  _1338
REMARK  408  A    between atoms: _1338  and  _1339
REMARK  409  A    between atoms: _1339  and  _1340
REMARK  410  A    between atoms: _1354  and  _1355
REMARK  411  A    between atoms: _1355  and  _1356
REMARK  412  A    between atoms: _1355  and  _1358
REMARK  413  A    between atoms: _1364  and  _1365
REMARK  414  A    between atoms: _1365  and  _1366
REMARK  415  A    between atoms: _1365  and  _1368
REMARK  416  A    between atoms: _1368  and  _1369
REMARK  417  A    between atoms: _1376  and  _1377
REMARK  418  A    between atoms: _1377  and  _1378
REMARK  419  A    between atoms: _1377  and  _1380
REMARK  420  A    between atoms: _1380  and  _1381
REMARK  421  A    between atoms: _1381  and  _1382
REMARK  422  A    between atoms: _1381  and  _1383
REMARK  423  A    between atoms: _1395  and  _1396
REMARK  424  A    between atoms: _1396  and  _1399
REMARK  425  A    between atoms: _1399  and  _1400
REMARK  426  A    between atoms: _1399  and  _1401
REMARK  427  A    between atoms: _1400  and  _1402
REMARK  428  A    between atoms: _1422  and  _1425
REMARK  429  A    between atoms: _1424  and  _1428
REMARK  430  A    between atoms: _1425  and  _1427
REMARK  431  A    between atoms: _1443  and  _1444
REMARK  432  A    between atoms: _1443  and  _1446
REMARK  433  A    between atoms: _1446  and  _1447
REMARK  434  A    between atoms: _1457  and  _1458
REMARK  435  A    between atoms: _1458  and  _1459
REMARK  436  A    between atoms: _1458  and  _1461
REMARK  437  A    between atoms: _1461  and  _1462
REMARK  438  A    between atoms: _1462  and  _1463
REMARK  439  A    between atoms: _1462  and  _1464
REMARK  440  A    between atoms: _1476  and  _1477
REMARK  441  A    between atoms: _1477  and  _1478
REMARK  442  A    between atoms: _1483  and  _1484
REMARK  443  A    between atoms: _1484  and  _1485
REMARK  444  A    between atoms: _1484  and  _1487
REMARK  445  A    between atoms: _1487  and  _1488
REMARK  446  A    between atoms: _1487  and  _1489
REMARK  447  A    between atoms: _1497  and  _1498
REMARK  448  A    between atoms: _1498  and  _1499
REMARK  449  A    between atoms: _1498  and  _1501
REMARK  450  A    between atoms: _1501  and  _1502
REMARK  451  A    between atoms: _1501  and  _1503
REMARK  452  A    between atoms: _1502  and  _1504
REMARK  453  A    between atoms: _1516  and  _1517
REMARK  454  A    between atoms: _1517  and  _1518
REMARK  455  A    between atoms: _1517  and  _1520
REMARK  456  A    between atoms: _1526  and  _1527
REMARK  457  A    between atoms: _1527  and  _1528
REMARK  458  A    between atoms: _1527  and  _1530
REMARK  459  A    between atoms: _1530  and  _1531
REMARK  460  A    between atoms: _1531  and  _1532
REMARK  461  A    between atoms: _1532  and  _1533
REMARK  462  A    between atoms: _1533  and  _1534
REMARK  463  A    between atoms: _1548  and  _1549
REMARK  464  A    between atoms: _1549  and  _1550
REMARK  465  A    between atoms: _1549  and  _1552
REMARK  466  A    between atoms: _1552  and  _1553
REMARK  467  A    between atoms: _1559  and  _1560
REMARK  468  A    between atoms: _1560  and  _1561
REMARK  469  A    between atoms: _1566  and  _1567
REMARK  470  A    between atoms: _1567  and  _1568
REMARK  471  A    between atoms: _1567  and  _1570
REMARK  472  A    between atoms: _1570  and  _1571
REMARK  473  A    between atoms: _1570  and  _1572
REMARK  474  A    between atoms: _1580  and  _1581
REMARK  475  A    between atoms: _1581  and  _1582
REMARK  476  A    between atoms: _1581  and  _1584
REMARK  477  A    between atoms: _1584  and  _1585
REMARK  478  A    between atoms: _1585  and  _1586
REMARK  479  A    between atoms: _1586  and  _1587
REMARK  480  A    between atoms: _1587  and  _1588
REMARK  481  A    between atoms: _1602  and  _1603
REMARK  482  A    between atoms: _1603  and  _1604
REMARK  483  A    between atoms: _1603  and  _1606
REMARK  484  A    between atoms: _1612  and  _1613
REMARK  485  A    between atoms: _1613  and  _1614
REMARK  486  A    between atoms: _1613  and  _1616
REMARK  487  A    between atoms: _1616  and  _1617
REMARK  488  A    between atoms: _1632  and  _1633
REMARK  489  A    between atoms: _1633  and  _1634
REMARK  490  A    between atoms: _1633  and  _1636
REMARK  491  A    between atoms: _1636  and  _1637
REMARK  492  A    between atoms: _1637  and  _1638
REMARK  493  A    between atoms: _1638  and  _1639
REMARK  494  A    between atoms: _1649  and  _1650
REMARK  495  A    between atoms: _1650  and  _1651
REMARK  496  A    between atoms: _1650  and  _1653
REMARK  497  A    between atoms: _1653  and  _1654
REMARK  498  A    between atoms: _1654  and  _1655
REMARK  499  A    between atoms: _1664  and  _1665
REMARK  500  A    between atoms: _1665  and  _1666
REMARK  501  A    between atoms: _1665  and  _1668
REMARK  502  A    between atoms: _1674  and  _1675
REMARK  503  A    between atoms: _1675  and  _1676
REMARK  504  A    between atoms: _1675  and  _1678
REMARK  505  A    between atoms: _1678  and  _1679
REMARK  506  A    between atoms: _1679  and  _1680
REMARK  507  A    between atoms: _1679  and  _1681
REMARK  508  A    between atoms: _1693  and  _1694
REMARK  509  A    between atoms: _1694  and  _1695
REMARK  510  A    between atoms: _1694  and  _1697
REMARK  511  A    between atoms: _1697  and  _1698
REMARK  512  A    between atoms: _1698  and  _1699
REMARK  513  A    between atoms: _1710  and  _1711
REMARK  514  A    between atoms: _1711  and  _1712
REMARK  515  A    between atoms: _1711  and  _1714
REMARK  516  A    between atoms: _1720  and  _1721
REMARK  517  A    between atoms: _1721  and  _1722
REMARK  518  A    between atoms: _1727  and  _1728
REMARK  519  A    between atoms: _1728  and  _1729
REMARK  520  A    between atoms: _1728  and  _1731
REMARK  521  A    between atoms: _1737  and  _1738
REMARK  522  A    between atoms: _1738  and  _1739
REMARK  523  A    between atoms: _1738  and  _1741
REMARK  524  A    between atoms: _1741  and  _1742
REMARK  525  A    between atoms: _1749  and  _1750
REMARK  526  A    between atoms: _1750  and  _1751
REMARK  527  A    between atoms: _1750  and  _1753
REMARK  528  A    between atoms: _1753  and  _1754
REMARK  529  A    between atoms: _1753  and  _1755
REMARK  530  A    between atoms: _1754  and  _1756
REMARK  531  A    between atoms: _1768  and  _1769
REMARK  532  A    between atoms: _1769  and  _1772
REMARK  533  A    between atoms: _1772  and  _1773
REMARK  534  A    between atoms: _1791  and  _1793
REMARK  535  A    between atoms: _1792  and  _1794
REMARK  536  A    between atoms: _1814  and  _1815
REMARK  537  A    between atoms: _1814  and  _1817
REMARK  538  A    between atoms: _1817  and  _1818
REMARK  539  A    between atoms: _1817  and  _1819
REMARK  540  A    between atoms: _1818  and  _1820
REMARK  541  A    between atoms: _1833  and  _1834
REMARK  542  A    between atoms: _1834  and  _1835
REMARK  543  A    between atoms: _1840  and  _1841
REMARK  544  A    between atoms: _1841  and  _1842
REMARK  545  A    between atoms: _1841  and  _1844
REMARK  546  A    between atoms: _1844  and  _1845
REMARK  547  A    between atoms: _1845  and  _1846
REMARK  548  A    between atoms: _1857  and  _1858
REMARK  549  A    between atoms: _1858  and  _1859
REMARK  550  A    between atoms: _1858  and  _1861
REMARK  551  A    between atoms: _1861  and  _1862
REMARK  552  A    between atoms: _1877  and  _1878
REMARK  553  A    between atoms: _1878  and  _1879
REMARK  554  A    between atoms: _1884  and  _1885
REMARK  555  A    between atoms: _1885  and  _1886
REMARK  556  A    between atoms: _1885  and  _1888
REMARK  557  A    between atoms: _1888  and  _1889
REMARK  558  A    between atoms: _1888  and  _1890
REMARK  559  A    between atoms: _1900  and  _1901
REMARK  560  A    between atoms: _1901  and  _1902
REMARK  561  A    between atoms: _1907  and  _1908
REMARK  562  A    between atoms: _1908  and  _1909
REMARK  563  A    between atoms: _1908  and  _1911
REMARK  564  A    between atoms: _1911  and  _1912
REMARK  565  A    between atoms: _1927  and  _1928
REMARK  566  A    between atoms: _1928  and  _1929
REMARK  567  A    between atoms: _1928  and  _1931
REMARK  568  A    between atoms: _1931  and  _1932
REMARK  569  A    between atoms: _1937  and  _1938
REMARK  570  A    between atoms: _1948  and  _1949
REMARK  571  A    between atoms: _1949  and  _1950
REMARK  572  A    between atoms: _1949  and  _1952
REMARK  573  A    between atoms: _1952  and  _1953
REMARK  574  A    between atoms: _1959  and  _1960
REMARK  575  A    between atoms: _1960  and  _1961
REMARK  576  A    between atoms: _1960  and  _1963
REMARK  577  A    between atoms: _1969  and  _1970
REMARK  578  A    between atoms: _1970  and  _1971
REMARK  579  A    between atoms: _1970  and  _1973
REMARK  580  A    between atoms: _1973  and  _1974
REMARK  581  A    between atoms: _1979  and  _1980
REMARK  582  A    between atoms: _1990  and  _1991
REMARK  583  A    between atoms: _1991  and  _1992
REMARK  584  A    between atoms: _1991  and  _1994
REMARK  585  A    between atoms: _1994  and  _1995
REMARK  586  A    between atoms: _1995  and  _1996
REMARK  587  A    between atoms: _1995  and  _1997
REMARK  588  A    between atoms: _2009  and  _2010
REMARK  589  A    between atoms: _2010  and  _2011
REMARK  590  A    between atoms: _2010  and  _2013
REMARK  591  A    between atoms: _2013  and  _2014
REMARK  592  A    between atoms: _2013  and  _2015
REMARK  593  A    between atoms: _2025  and  _2026
REMARK  594  A    between atoms: _2026  and  _2027
REMARK  595  A    between atoms: _2026  and  _2029
REMARK  596  A    between atoms: _2035  and  _2036
REMARK  597  A    between atoms: _2036  and  _2037
REMARK  598  A    between atoms: _2036  and  _2039
REMARK  599  A    between atoms: _2039  and  _2040
REMARK  600  A    between atoms: _2040  and  _2041
REMARK  601  A    between atoms: _2050  and  _2051
REMARK  602  A    between atoms: _2051  and  _2052
REMARK  603  A    between atoms: _2051  and  _2054
REMARK  604  A    between atoms: _2054  and  _2055
REMARK  605  A    between atoms: _2055  and  _2056
REMARK  606  A    between atoms: _2056  and  _2057
REMARK  607  A    between atoms: _2057  and  _2058
REMARK  608  A    between atoms: _2072  and  _2073
REMARK  609  A    between atoms: _2073  and  _2074
REMARK  610  A    between atoms: _2073  and  _2076
REMARK  611  A    between atoms: _2076  and  _2077
REMARK  612  A    between atoms: _2076  and  _2078
REMARK  613  A    between atoms: _2088  and  _2089
REMARK  614  A    between atoms: _2089  and  _2090
REMARK  615  A    between atoms: _2089  and  _2092
REMARK  616  A    between atoms: _2092  and  _2093
REMARK  617  A    between atoms: _2092  and  _2094
REMARK  618  A    between atoms: _2102  and  _2103
REMARK  619  A    between atoms: _2103  and  _2104
REMARK  620  A    between atoms: _2103  and  _2106
REMARK  621  A    between atoms: _2106  and  _2107
REMARK  622  A    between atoms: _2106  and  _2108
REMARK  623  A    between atoms: _2118  and  _2119
REMARK  624  A    between atoms: _2119  and  _2120
REMARK  625  A    between atoms: _2119  and  _2122
REMARK  626  A    between atoms: _2122  and  _2123
REMARK  627  A    between atoms: _2122  and  _2124
REMARK  628  A    between atoms: _2123  and  _2125
REMARK  629  A    between atoms: _2137  and  _2138
REMARK  630  A    between atoms: _2138  and  _2139
REMARK  631  A    between atoms: _2138  and  _2141
REMARK  632  A    between atoms: _2141  and  _2142
REMARK  633  A    between atoms: _2141  and  _2143
REMARK  634  A    between atoms: _2151  and  _2152
REMARK  635  A    between atoms: _2152  and  _2153
REMARK  636  A    between atoms: _2152  and  _2155
REMARK  637  A    between atoms: _2155  and  _2156
REMARK  638  A    between atoms: _2156  and  _2157
REMARK  639  A    between atoms: _2157  and  _2158
REMARK  640  A    between atoms: _2158  and  _2159
REMARK  641  A    between atoms: _2173  and  _2174
REMARK  642  A    between atoms: _2174  and  _2175
REMARK  643  A    between atoms: _2174  and  _2177
REMARK  644  A    between atoms: _2177  and  _2178
REMARK  645  A    between atoms: _2190  and  _2191
REMARK  646  A    between atoms: _2191  and  _2192
REMARK  647  A    between atoms: _2191  and  _2194
REMARK  648  A    between atoms: _2194  and  _2195
REMARK  649  A    between atoms: _2204  and  _2205
REMARK  650  A    between atoms: _2205  and  _2206
REMARK  651  A    between atoms: _2205  and  _2208
REMARK  652  A    between atoms: _2208  and  _2209
REMARK  653  A    between atoms: _2216  and  _2217
REMARK  654  A    between atoms: _2217  and  _2218
REMARK  655  A    between atoms: _2217  and  _2220
REMARK  656  A    between atoms: _2220  and  _2221
REMARK  657  A    between atoms: _2228  and  _2229
REMARK  658  A    between atoms: _2229  and  _2230
REMARK  659  A    between atoms: _2229  and  _2232
REMARK  660  A    between atoms: _2232  and  _2233
REMARK  661  A    between atoms: _2233  and  _2234
REMARK  662  A    between atoms: _2243  and  _2244
REMARK  663  A    between atoms: _2244  and  _2245
REMARK  664  A    between atoms: _2244  and  _2247
REMARK  665  A    between atoms: _2247  and  _2248
REMARK  666  A    between atoms: _2248  and  _2249
REMARK  667  A    between atoms: _2260  and  _2261
REMARK  668  A    between atoms: _2261  and  _2262
REMARK  669  A    between atoms: _2261  and  _2264
REMARK  670  A    between atoms: _2264  and  _2265
REMARK  671  A    between atoms: _2270  and  _2271
REMARK  672  A    between atoms: _2281  and  _2282
REMARK  673  A    between atoms: _2282  and  _2283
REMARK  674  A    between atoms: _2282  and  _2285
REMARK  675  A    between atoms: _2291  and  _2292
REMARK  676  A    between atoms: _2292  and  _2293
REMARK  677  A    between atoms: _2292  and  _2295
REMARK  678  A    between atoms: _2295  and  _2296
REMARK  679  A    between atoms: _2315  and  _2316
REMARK  680  A    between atoms: _2316  and  _2317
REMARK  681  A    between atoms: _2316  and  _2319
REMARK  682  A    between atoms: _2319  and  _2320
REMARK  683  A    between atoms: _2320  and  _2321
REMARK  684  A    between atoms: _2330  and  _2331
REMARK  685  A    between atoms: _2331  and  _2332
REMARK  686  A    between atoms: _2331  and  _2334
REMARK  687  A    between atoms: _2334  and  _2335
REMARK  688  A    between atoms: _2341  and  _2342
REMARK  689  A    between atoms: _2342  and  _2343
REMARK  690  A    between atoms: _2342  and  _2345
REMARK  691  A    between atoms: _2345  and  _2346
REMARK  692  A    between atoms: _2352  and  _2353
REMARK  693  A    between atoms: _2353  and  _2354
REMARK  694  A    between atoms: _2353  and  _2356
REMARK  695  A    between atoms: _2362  and  _2363
REMARK  696  A    between atoms: _2363  and  _2364
REMARK  697  A    between atoms: _2369  and  _2370
REMARK  698  A    between atoms: _2370  and  _2371
REMARK  699  A    between atoms: _2376  and  _2377
REMARK  700  A    between atoms: _2377  and  _2378
REMARK  701  A    between atoms: _2377  and  _2380
REMARK  702  A    between atoms: _2380  and  _2381
REMARK  703  A    between atoms: _2387  and  _2388
REMARK  704  A    between atoms: _2388  and  _2389
REMARK  705  A    between atoms: _2388  and  _2391
REMARK  706  A    between atoms: _2391  and  _2392
REMARK  707  A    between atoms: _2407  and  _2408
REMARK  708  A    between atoms: _2408  and  _2409
REMARK  709  A    between atoms: _2408  and  _2411
REMARK  710  A    between atoms: _2411  and  _2412
REMARK  711  A    between atoms: _2411  and  _2413
REMARK  712  A    between atoms: _2421  and  _2422
REMARK  713  A    between atoms: _2422  and  _2423
REMARK  714  A    between atoms: _2422  and  _2425
REMARK  715  A    between atoms: _2425  and  _2426
REMARK  716  A    between atoms: _2425  and  _2427
REMARK  717  A    between atoms: _2437  and  _2438
REMARK  718  A    between atoms: _2438  and  _2439
REMARK  719  A    between atoms: _2438  and  _2441
REMARK  720  A    between atoms: _2441  and  _2442
REMARK  721  A    between atoms: _2442  and  _2443
REMARK  722  A    between atoms: _2443  and  _2444
REMARK  723  A    between atoms: _2461  and  _2462
REMARK  724  A    between atoms: _2462  and  _2463
REMARK  725  A    between atoms: _2462  and  _2465
REMARK  726  A    between atoms: _2465  and  _2466
REMARK  727  A    between atoms: _2465  and  _2467
REMARK  728  A    between atoms: _2475  and  _2476
REMARK  729  A    between atoms: _2476  and  _2477
REMARK  730  A    between atoms: _2476  and  _2479
REMARK  731  A    between atoms: _2479  and  _2480
REMARK  732  A    between atoms: _2487  and  _2488
REMARK  733  A    between atoms: _2488  and  _2489
REMARK  734  A    between atoms: _2488  and  _2491
REMARK  735  A    between atoms: _2491  and  _2492
REMARK  736  A    between atoms: _2491  and  _2493
REMARK  737  A    between atoms: _2501  and  _2502
REMARK  738  A    between atoms: _2502  and  _2503
REMARK  739  A    between atoms: _2508  and  _2509
REMARK  740  A    between atoms: _2509  and  _2510
REMARK  741  A    between atoms: _2509  and  _2512
REMARK  742  A    between atoms: _2512  and  _2513
REMARK  743  A    between atoms: _2513  and  _2514
REMARK  744  A    between atoms: _2524  and  _2525
REMARK  745  A    between atoms: _2537  and  _2538
REMARK  746  A    between atoms: _2538  and  _2539
REMARK  747  A    between atoms: _2538  and  _2541
REMARK  748  A    between atoms: _2541  and  _2542
REMARK  749  A    between atoms: _2542  and  _2543
REMARK  750  A    between atoms: _2543  and  _2544
REMARK  751  A    between atoms: _2554  and  _2555
REMARK  752  A    between atoms: _2555  and  _2556
REMARK  753  A    between atoms: _2561  and  _2562
REMARK  754  A    between atoms: _2562  and  _2563
REMARK  755  A    between atoms: _2562  and  _2565
REMARK  756  A    between atoms: _2565  and  _2566
REMARK  757  A    between atoms: _2566  and  _2567
REMARK  758  A    between atoms: _2567  and  _2568
REMARK  759  A    between atoms: _2585  and  _2586
REMARK  760  A    between atoms: _2586  and  _2587
REMARK  761  A    between atoms: _2592  and  _2593
REMARK  762  A    between atoms: _2593  and  _2594
REMARK  763  A    between atoms: _2593  and  _2596
REMARK  764  A    between atoms: _2596  and  _2597
REMARK  765  A    between atoms: _2596  and  _2598
REMARK  766  A    between atoms: _2606  and  _2607
REMARK  767  A    between atoms: _2607  and  _2608
REMARK  768  A    between atoms: _2607  and  _2610
REMARK  769  A    between atoms: _2610  and  _2611
REMARK  770  A    between atoms: _2611  and  _2612
REMARK  771  A    between atoms: _2612  and  _2613
REMARK  772  A    between atoms: _2613  and  _2614
REMARK  773  A    between atoms: _2628  and  _2629
REMARK  774  A    between atoms: _2629  and  _2630
REMARK  775  A    between atoms: _2629  and  _2632
REMARK  776  A    between atoms: _2632  and  _2633
REMARK  777  A    between atoms: _2632  and  _2634
REMARK  778  A    between atoms: _2644  and  _2645
REMARK  779  A    between atoms: _2645  and  _2646
REMARK  780  A    between atoms: _2645  and  _2648
REMARK  781  A    between atoms: _2648  and  _2649
REMARK  782  A    between atoms: _2648  and  _2650
REMARK  783  A    between atoms: _2649  and  _2651
REMARK  784  A    between atoms: _2663  and  _2664
REMARK  785  A    between atoms: _2664  and  _2665
REMARK  786  A    between atoms: _2664  and  _2667
REMARK  787  A    between atoms: _2667  and  _2668
REMARK  788  A    between atoms: _2668  and  _2669
REMARK  789  A    between atoms: _2668  and  _2670
REMARK  790  A    between atoms: _2682  and  _2683
REMARK  791  A    between atoms: _2683  and  _2684
REMARK  792  A    between atoms: _2683  and  _2686
REMARK  793  A    between atoms: _2686  and  _2687
REMARK  794  A    between atoms: _2699  and  _2700
REMARK  795  A    between atoms: _2700  and  _2701
REMARK  796  A    between atoms: _2700  and  _2703
REMARK  797  A    between atoms: _2703  and  _2704
REMARK  798  A    between atoms: _2704  and  _2705
REMARK  799  A    between atoms: _2704  and  _2706
REMARK  800  A    between atoms: _2718  and  _2719
REMARK  801  A    between atoms: _2719  and  _2720
REMARK  802  A    between atoms: _2719  and  _2722
REMARK  803  A    between atoms: _2722  and  _2723
REMARK  804  A    between atoms: _2723  and  _2724
REMARK  805  A    between atoms: _2724  and  _2725
REMARK  806  A    between atoms: _2725  and  _2726
REMARK  807  A    between atoms: _2740  and  _2741
REMARK  808  A    between atoms: _2741  and  _2742
REMARK  809  A    between atoms: _2741  and  _2744
REMARK  810  A    between atoms: _2744  and  _2745
REMARK  811  A    between atoms: _2745  and  _2746
REMARK  812  A    between atoms: _2755  and  _2756
REMARK  813  A    between atoms: _2756  and  _2757
REMARK  814  A    between atoms: _2756  and  _2759
REMARK  815  A    between atoms: _2759  and  _2760
REMARK  816  A    between atoms: _2767  and  _2768
REMARK  817  A    between atoms: _2768  and  _2769
REMARK  818  A    between atoms: _2768  and  _2771
REMARK  819  A    between atoms: _2771  and  _2772
REMARK  820  A    between atoms: _2772  and  _2773
REMARK  821  A    between atoms: _2784  and  _2785
REMARK  822  A    between atoms: _2785  and  _2786
REMARK  823  A    between atoms: _2785  and  _2788
REMARK  824  A    between atoms: _2788  and  _2789
REMARK  825  A    between atoms: _2788  and  _2790
REMARK  826  A    between atoms: _2798  and  _2799
REMARK  827  A    between atoms: _2799  and  _2800
REMARK  828  A    between atoms: _2799  and  _2802
REMARK  829  A    between atoms: _2802  and  _2803
REMARK  830  A    between atoms: _2803  and  _2804
REMARK  831  A    between atoms: _2813  and  _2814
REMARK  832  A    between atoms: _2814  and  _2815
REMARK  833  A    between atoms: _2814  and  _2817
REMARK  834  A    between atoms: _2817  and  _2818
REMARK  835  A    between atoms: _2823  and  _2824
REMARK  836  A    between atoms: _2834  and  _2835
REMARK  837  A    between atoms: _2835  and  _2838
REMARK  838  A    between atoms: _2838  and  _2839
REMARK  839  A    between atoms: _2839  and  _2840
REMARK  840  A    between atoms: _2839  and  _2841
REMARK  841  A    between atoms: _2884  and  _2885
REMARK  842  A    between atoms: _2884  and  _2887
REMARK  843  A    between atoms: _2887  and  _2888
REMARK  844  A    between atoms: _2888  and  _2889
REMARK  845  A    between atoms: _2899  and  _2900
REMARK  846  A    between atoms: _2900  and  _2901
REMARK  847  A    between atoms: _2900  and  _2903
REMARK  848  A    between atoms: _2903  and  _2904
REMARK  849  A    between atoms: _2904  and  _2905
REMARK  850  A    between atoms: _2905  and  _2906
REMARK  851  A    between atoms: _2923  and  _2924
REMARK  852  A    between atoms: _2924  and  _2925
REMARK  853  A    between atoms: _2924  and  _2927
REMARK  854  A    between atoms: _2927  and  _2928
REMARK  855  A    between atoms: _2928  and  _2929
REMARK  856  A    between atoms: _2929  and  _2930
REMARK  857  A    between atoms: _2947  and  _2948
REMARK  858  A    between atoms: _2948  and  _2949
REMARK  859  A    between atoms: _2948  and  _2951
REMARK  860  A    between atoms: _2951  and  _2952
REMARK  861  A    between atoms: _2951  and  _2953
REMARK  862  A    between atoms: _2952  and  _2954
REMARK  863  A    between atoms: _2966  and  _2967
REMARK  864  A    between atoms: _2967  and  _2968
REMARK  865  A    between atoms: _2967  and  _2970
REMARK  866  A    between atoms: _2970  and  _2971
REMARK  867  A    between atoms: _2971  and  _2972
REMARK  868  A    between atoms: _2972  and  _2973
REMARK  869  A    between atoms: _2973  and  _2974
REMARK  870  A    between atoms: _2988  and  _2989
REMARK  871  A    between atoms: _2989  and  _2990
REMARK  872  A    between atoms: _2989  and  _2992
REMARK  873  A    between atoms: _2992  and  _2993
REMARK  874  A    between atoms: _2993  and  _2994
REMARK  875  A    between atoms: _3003  and  _3004
REMARK  876  A    between atoms: _3004  and  _3005
REMARK  877  A    between atoms: _3004  and  _3007
REMARK  878  A    between atoms: _3007  and  _3008
REMARK  879  A    between atoms: _3007  and  _3009
REMARK  880  A    between atoms: _3008  and  _3010
REMARK  881  A    between atoms: _3022  and  _3023
REMARK  882  A    between atoms: _3023  and  _3024
REMARK  883  A    between atoms: _3023  and  _3026
REMARK  884  A    between atoms: _3026  and  _3027
REMARK  885  A    between atoms: _3026  and  _3028
REMARK  886  A    between atoms: _3038  and  _3039
REMARK  887  A    between atoms: _3039  and  _3040
REMARK  888  A    between atoms: _3039  and  _3042
REMARK  889  A    between atoms: _3042  and  _3043
REMARK  890  A    between atoms: _3043  and  _3044
REMARK  891  A    between atoms: _3044  and  _3045
REMARK  892  A    between atoms: _3045  and  _3046
REMARK  893  A    between atoms: _3060  and  _3061
REMARK  894  A    between atoms: _3061  and  _3062
REMARK  895  A    between atoms: _3061  and  _3064
REMARK  896  A    between atoms: _3064  and  _3065
REMARK  897  A    between atoms: _3065  and  _3066
REMARK  898  A    between atoms: _3066  and  _3067
REMARK  899  A    between atoms: _3067  and  _3068
REMARK  900  A    between atoms: _3082  and  _3083
REMARK  901  A    between atoms: _3083  and  _3084
REMARK  902  A    between atoms: _3083  and  _3086
REMARK  903  A    between atoms: _3086  and  _3087
REMARK  904  A    between atoms: _3099  and  _3100
REMARK  905  A    between atoms: _3100  and  _3101
REMARK  906  A    between atoms: _3100  and  _3103
REMARK  907  A    between atoms: _3103  and  _3104
REMARK  908  A    between atoms: _3110  and  _3111
REMARK  909  A    between atoms: _3111  and  _3112
REMARK  910  A    between atoms: _3111  and  _3114
REMARK  911  A    between atoms: _3114  and  _3115
REMARK  912  A    between atoms: _3115  and  _3116
REMARK  913  A    between atoms: _3127  and  _3128
REMARK  914  A    between atoms: _3128  and  _3129
REMARK  915  A    between atoms: _3128  and  _3131
REMARK  916  A    between atoms: _3131  and  _3132
REMARK  917  A    between atoms: _3147  and  _3148
REMARK  918  A    between atoms: _3148  and  _3149
REMARK  919  A    between atoms: _3148  and  _3151
REMARK  920  A    between atoms: _3151  and  _3152
REMARK  921  A    between atoms: _3151  and  _3153
REMARK  922  A    between atoms: _3152  and  _3154
REMARK  923  A    between atoms: _3166  and  _3167
REMARK  924  A    between atoms: _3167  and  _3168
REMARK  925  A    between atoms: _3173  and  _3174
REMARK  926  A    between atoms: _3174  and  _3175
REMARK  927  A    between atoms: _3174  and  _3177
REMARK  928  A    between atoms: _3177  and  _3178
REMARK  929  A    between atoms: _3183  and  _3184
REMARK  930  A    between atoms: _3195  and  _3196
REMARK  931  A    between atoms: _3208  and  _3209
REMARK  932  A    between atoms: _3209  and  _3210
REMARK  933  A    between atoms: _3209  and  _3212
REMARK  934  A    between atoms: _3212  and  _3213
REMARK  935  A    between atoms: _3212  and  _3214
REMARK  936  A    between atoms: _3213  and  _3215
REMARK  937  A    between atoms: _3227  and  _3228
REMARK  938  A    between atoms: _3228  and  _3229
REMARK  939  A    between atoms: _3228  and  _3231
REMARK  940  A    between atoms: _3231  and  _3232
REMARK  941  A    between atoms: _3231  and  _3233
REMARK  942  A    between atoms: _3241  and  _3242
REMARK  943  A    between atoms: _3242  and  _3243
REMARK  944  A    between atoms: _3242  and  _3245
REMARK  945  A    between atoms: _3245  and  _3246
REMARK  946  A    between atoms: _3246  and  _3247
REMARK  947  A    between atoms: _3246  and  _3248
REMARK  948  A    between atoms: _3260  and  _3261
REMARK  949  A    between atoms: _3261  and  _3262
REMARK  950  A    between atoms: _3261  and  _3264
REMARK  951  A    between atoms: _3264  and  _3265
REMARK  952  A    between atoms: _3280  and  _3281
REMARK  953  A    between atoms: _3281  and  _3282
REMARK  954  A    between atoms: _3281  and  _3284
REMARK  955  A    between atoms: _3284  and  _3285
REMARK  956  A    between atoms: _3284  and  _3286
REMARK  957  A    between atoms: _3296  and  _3297
REMARK  958  A    between atoms: _3297  and  _3298
REMARK  959  A    between atoms: _3297  and  _3300
REMARK  960  A    between atoms: _3300  and  _3301
REMARK  961  A    between atoms: _3301  and  _3302
REMARK                            x       y       z     vdW  Elec       q    Type
REMARK                         _______ _______ _______ _____ _____    ______ ____
ROOT
ATOM      1  O   HOH     1      -9.831  22.382  40.849  0.00  0.00    +0.000 OA
ENDROOT
TORSDOF 0
REMARK  Name = /Users/mlugowska/PhD/ML_residence_time_prediction/protein_files/5J20_protein.pdb
REMARK  961 active torsions:
REMARK  status: ('A' for Active; 'I' for Inactive)
REMARK    1  A    between atoms: _2  and  _3
REMARK    2  A    between atoms: _2  and  _5
REMARK    3  A    between atoms: _10  and  _11
REMARK    4  A    between atoms: _11  and  _12
REMARK    5  A    between atoms: _11  and  _14
REMARK    6  A    between atoms: _14  and  _15
REMARK    7  A    between atoms: _14  and  _16
REMARK    8  A    between atoms: _26  and  _27
REMARK    9  A    between atoms: _27  and  _28
REMARK   10  A    between atoms: _27  and  _30
REMARK   11  A    between atoms: _30  and  _31
REMARK   12  A    between atoms: _31  and  _32
REMARK   13  A    between atoms: _41  and  _42
REMARK   14  A    between atoms: _42  and  _43
REMARK   15  A    between atoms: _42  and  _45
REMARK   16  A    between atoms: _45  and  _46
REMARK   17  A    between atoms: _45  and  _47
REMARK   18  A    between atoms: _55  and  _56
REMARK   19  A    between atoms: _56  and  _57
REMARK   20  A    between atoms: _56  and  _59
REMARK   21  A    between atoms: _59  and  _60
REMARK   22  A    between atoms: _75  and  _76
REMARK   23  A    between atoms: _76  and  _77
REMARK   24  A    between atoms: _76  and  _79
REMARK   25  A    between atoms: _85  and  _86
REMARK   26  A    between atoms: _86  and  _87
REMARK   27  A    between atoms: _86  and  _89
REMARK   28  A    between atoms: _89  and  _90
REMARK   29  A    between atoms: _105  and  _106
REMARK   30  A    between atoms: _106  and  _107
REMARK   31  A    between atoms: _106  and  _109
REMARK   32  A    between atoms: _109  and  _110
REMARK   33  A    between atoms: _110  and  _111
REMARK   34  A    between atoms: _122  and  _123
REMARK   35  A    between atoms: _123  and  _124
REMARK   36  A    between atoms: _123  and  _126
REMARK   37  A    between atoms: _132  and  _133
REMARK   38  A    between atoms: _133  and  _134
REMARK   39  A    between atoms: _133  and  _136
REMARK   40  A    between atoms: _136  and  _137
REMARK   41  A    between atoms: _137  and  _138
REMARK   42  A    between atoms: _147  and  _148
REMARK   43  A    between atoms: _148  and  _149
REMARK   44  A    between atoms: _148  and  _151
REMARK   45  A    between atoms: _151  and  _152
REMARK   46  A    between atoms: _151  and  _153
REMARK   47  A    between atoms: _152  and  _154
REMARK   48  A    between atoms: _166  and  _167
REMARK   49  A    between atoms: _167  and  _168
REMARK   50  A    between atoms: _167  and  _170
REMARK   51  A    between atoms: _176  and  _177
REMARK   52  A    between atoms: _177  and  _178
REMARK   53  A    between atoms: _177  and  _180
REMARK   54  A    between atoms: _180  and  _181
REMARK   55  A    between atoms: _181  and  _182
REMARK   56  A    between atoms: _193  and  _194
REMARK   57  A    between atoms: _194  and  _195
REMARK   58  A    between atoms: _194  and  _197
REMARK   59  A    between atoms: _197  and  _198
REMARK   60  A    between atoms: _198  and  _199
REMARK   61  A    between atoms: _198  and  _200
REMARK   62  A    between atoms: _212  and  _213
REMARK   63  A    between atoms: _213  and  _214
REMARK   64  A    between atoms: _213  and  _216
REMARK   65  A    between atoms: _216  and  _217
REMARK   66  A    between atoms: _217  and  _218
REMARK   67  A    between atoms: _218  and  _219
REMARK   68  A    between atoms: _229  and  _230
REMARK   69  A    between atoms: _230  and  _231
REMARK   70  A    between atoms: _230  and  _233
REMARK   71  A    between atoms: _233  and  _234
REMARK   72  A    between atoms: _240  and  _241
REMARK   73  A    between atoms: _241  and  _242
REMARK   74  A    between atoms: _241  and  _244
REMARK   75  A    between atoms: _244  and  _245
REMARK   76  A    between atoms: _245  and  _246
REMARK   77  A    between atoms: _245  and  _247
REMARK   78  A    between atoms: _259  and  _260
REMARK   79  A    between atoms: _260  and  _261
REMARK   80  A    between atoms: _260  and  _263
REMARK   81  A    between atoms: _263  and  _264
REMARK   82  A    between atoms: _263  and  _265
REMARK   83  A    between atoms: _264  and  _266
REMARK   84  A    between atoms: _278  and  _279
REMARK   85  A    between atoms: _279  and  _280
REMARK   86  A    between atoms: _279  and  _282
REMARK   87  A    between atoms: _282  and  _283
REMARK   88  A    between atoms: _282  and  _284
REMARK   89  A    between atoms: _283  and  _285
REMARK   90  A    between atoms: _297  and  _298
REMARK   91  A    between atoms: _298  and  _299
REMARK   92  A    between atoms: _298  and  _301
REMARK   93  A    between atoms: _301  and  _302
REMARK   94  A    between atoms: _311  and  _312
REMARK   95  A    between atoms: _312  and  _313
REMARK   96  A    between atoms: _312  and  _315
REMARK   97  A    between atoms: _315  and  _316
REMARK   98  A    between atoms: _315  and  _317
REMARK   99  A    between atoms: _325  and  _326
REMARK  100  A    between atoms: _326  and  _327
REMARK  101  A    between atoms: _326  and  _329
REMARK  102  A    between atoms: _329  and  _330
REMARK  103  A    between atoms: _345  and  _346
REMARK  104  A    between atoms: _346  and  _347
REMARK  105  A    between atoms: _346  and  _349
REMARK  106  A    between atoms: _349  and  _350
REMARK  107  A    between atoms: _355  and  _356
REMARK  108  A    between atoms: _366  and  _367
REMARK  109  A    between atoms: _367  and  _368
REMARK  110  A    between atoms: _367  and  _370
REMARK  111  A    between atoms: _370  and  _371
REMARK  112  A    between atoms: _377  and  _378
REMARK  113  A    between atoms: _378  and  _379
REMARK  114  A    between atoms: _378  and  _381
REMARK  115  A    between atoms: _381  and  _382
REMARK  116  A    between atoms: _391  and  _392
REMARK  117  A    between atoms: _392  and  _393
REMARK  118  A    between atoms: _392  and  _395
REMARK  119  A    between atoms: _395  and  _396
REMARK  120  A    between atoms: _396  and  _397
REMARK  121  A    between atoms: _397  and  _398
REMARK  122  A    between atoms: _398  and  _399
REMARK  123  A    between atoms: _413  and  _414
REMARK  124  A    between atoms: _414  and  _415
REMARK  125  A    between atoms: _414  and  _417
REMARK  126  A    between atoms: _417  and  _418
REMARK  127  A    between atoms: _418  and  _419
REMARK  128  A    between atoms: _428  and  _429
REMARK  129  A    between atoms: _429  and  _430
REMARK  130  A    between atoms: _429  and  _432
REMARK  131  A    between atoms: _432  and  _433
REMARK  132  A    between atoms: _432  and  _434
REMARK  133  A    between atoms: _433  and  _435
REMARK  134  A    between atoms: _447  and  _448
REMARK  135  A    between atoms: _448  and  _449
REMARK  136  A    between atoms: _448  and  _451
REMARK  137  A    between atoms: _451  and  _452
REMARK  138  A    between atoms: _467  and  _468
REMARK  139  A    between atoms: _468  and  _469
REMARK  140  A    between atoms: _468  and  _471
REMARK  141  A    between atoms: _471  and  _472
REMARK  142  A    between atoms: _472  and  _473
REMARK  143  A    between atoms: _472  and  _474
REMARK  144  A    between atoms: _486  and  _487
REMARK  145  A    between atoms: _487  and  _488
REMARK  146  A    between atoms: _487  and  _490
REMARK  147  A    between atoms: _490  and  _491
REMARK  148  A    between atoms: _491  and  _492
REMARK  149  A    between atoms: _492  and  _493
REMARK  150  A    between atoms: _510  and  _511
REMARK  151  A    between atoms: _511  and  _512
REMARK  152  A    between atoms: _511  and  _514
REMARK  153  A    between atoms: _514  and  _515
REMARK  154  A    between atoms: _515  and  _516
REMARK  155  A    between atoms: _525  and  _526
REMARK  156  A    between atoms: _526  and  _527
REMARK  157  A    between atoms: _526  and  _529
REMARK  158  A    between atoms: _529  and  _530
REMARK  159  A    between atoms: _530  and  _531
REMARK  160  A    between atoms: _530  and  _532
REMARK  161  A    between atoms: _544  and  _545
REMARK  162  A    between atoms: _545  and  _546
REMARK  163  A    between atoms: _545  and  _548
REMARK  164  A    between atoms: _548  and  _549
REMARK  165  A    between atoms: _548  and  _550
REMARK  166  A    between atoms: _549  and  _551
REMARK  167  A    between atoms: _563  and  _564
REMARK  168  A    between atoms: _564  and  _565
REMARK  169  A    between atoms: _564  and  _567
REMARK  170  A    between atoms: _567  and  _568
REMARK  171  A    between atoms: _574  and  _575
REMARK  172  A    between atoms: _575  and  _576
REMARK  173  A    between atoms: _575  and  _578
REMARK  174  A    between atoms: _578  and  _579
REMARK  175  A    between atoms: _588  and  _589
REMARK  176  A    between atoms: _589  and  _590
REMARK  177  A    between atoms: _589  and  _592
REMARK  178  A    between atoms: _592  and  _593
REMARK  179  A    between atoms: _599  and  _600
REMARK  180  A    between atoms: _600  and  _601
REMARK  181  A    between atoms: _600  and  _603
REMARK  182  A    between atoms: _603  and  _604
REMARK  183  A    between atoms: _610  and  _611
REMARK  184  A    between atoms: _611  and  _612
REMARK  185  A    between atoms: _611  and  _614
REMARK  186  A    between atoms: _614  and  _615
REMARK  187  A    between atoms: _622  and  _623
REMARK  188  A    between atoms: _623  and  _624
REMARK  189  A    between atoms: _623  and  _626
REMARK  190  A    between atoms: _632  and  _633
REMARK  191  A    between atoms: _633  and  _634
REMARK  192  A    between atoms: _633  and  _636
REMARK  193  A    between atoms: _636  and  _637
REMARK  194  A    between atoms: _637  and  _638
REMARK  195  A    between atoms: _637  and  _639
REMARK  196  A    between atoms: _651  and  _652
REMARK  197  A    between atoms: _652  and  _653
REMARK  198  A    between atoms: _652  and  _655
REMARK  199  A    between atoms: _655  and  _656
REMARK  200  A    between atoms: _663  and  _664
REMARK  201  A    between atoms: _664  and  _665
REMARK  202  A    between atoms: _664  and  _667
REMARK  203  A    between atoms: _667  and  _668
REMARK  204  A    between atoms: _668  and  _669
REMARK  205  A    between atoms: _669  and  _670
REMARK  206  A    between atoms: _670  and  _671
REMARK  207  A    between atoms: _685  and  _686
REMARK  208  A    between atoms: _686  and  _687
REMARK  209  A    between atoms: _686  and  _689
REMARK  210  A    between atoms: _689  and  _690
REMARK  211  A    between atoms: _689  and  _691
REMARK  212  A    between atoms: _690  and  _692
REMARK  213  A    between atoms: _704  and  _705
REMARK  214  A    between atoms: _705  and  _706
REMARK  215  A    between atoms: _705  and  _708
REMARK  216  A    between atoms: _708  and  _709
REMARK  217  A    between atoms: _709  and  _710
REMARK  218  A    between atoms: _710  and  _711
REMARK  219  A    between atoms: _728  and  _729
REMARK  220  A    between atoms: _729  and  _730
REMARK  221  A    between atoms: _729  and  _732
REMARK  222  A    between atoms: _732  and  _733
REMARK  223  A    between atoms: _738  and  _739
REMARK  224  A    between atoms: _749  and  _750
REMARK  225  A    between atoms: _750  and  _751
REMARK  226  A    between atoms: _750  and  _753
REMARK  227  A    between atoms: _753  and  _754
REMARK  228  A    between atoms: _754  and  _755
REMARK  229  A    between atoms: _764  and  _765
REMARK  230  A    between atoms: _765  and  _766
REMARK  231  A    between atoms: _765  and  _768
REMARK  232  A    between atoms: _772  and  _773
REMARK  233  A    between atoms: _773  and  _774
REMARK  234  A    between atoms: _773  and  _776
REMARK  235  A    between atoms: _776  and  _777
REMARK  236  A    between atoms: _777  and  _778
REMARK  237  A    between atoms: _777  and  _779
REMARK  238  A    between atoms: _791  and  _792
REMARK  239  A    between atoms: _792  and  _793
REMARK  240  A    between atoms: _792  and  _795
REMARK  241  A    between atoms: _795  and  _796
REMARK  242  A    between atoms: _795  and  _797
REMARK  243  A    between atoms: _805  and  _806
REMARK  244  A    between atoms: _806  and  _807
REMARK  245  A    between atoms: _806  and  _809
REMARK  246  A    between atoms: _809  and  _810
REMARK  247  A    between atoms: _818  and  _819
REMARK  248  A    between atoms: _831  and  _832
REMARK  249  A    between atoms: _832  and  _833
REMARK  250  A    between atoms: _832  and  _835
REMARK  251  A    between atoms: _835  and  _836
REMARK  252  A    between atoms: _842  and  _843
REMARK  253  A    between atoms: _843  and  _844
REMARK  254  A    between atoms: _843  and  _846
REMARK  255  A    between atoms: _846  and  _847
REMARK  256  A    between atoms: _847  and  _848
REMARK  257  A    between atoms: _848  and  _849
REMARK  258  A    between atoms: _849  and  _850
REMARK  259  A    between atoms: _864  and  _865
REMARK  260  A    between atoms: _865  and  _866
REMARK  261  A    between atoms: _865  and  _868
REMARK  262  A    between atoms: _868  and  _869
REMARK  263  A    between atoms: _869  and  _870
REMARK  264  A    between atoms: _869  and  _871
REMARK  265  A    between atoms: _883  and  _884
REMARK  266  A    between atoms: _884  and  _885
REMARK  267  A    between atoms: _884  and  _887
REMARK  268  A    between atoms: _887  and  _888
REMARK  269  A    between atoms: _895  and  _896
REMARK  270  A    between atoms: _896  and  _897
REMARK  271  A    between atoms: _896  and  _899
REMARK  272  A    between atoms: _899  and  _900
REMARK  273  A    between atoms: _906  and  _907
REMARK  274  A    between atoms: _907  and  _908
REMARK  275  A    between atoms: _913  and  _914
REMARK  276  A    between atoms: _914  and  _915
REMARK  277  A    between atoms: _914  and  _917
REMARK  278  A    between atoms: _917  and  _918
REMARK  279  A    between atoms: _918  and  _919
REMARK  280  A    between atoms: _919  and  _920
REMARK  281  A    between atoms: _920  and  _921
REMARK  282  A    between atoms: _935  and  _936
REMARK  283  A    between atoms: _936  and  _937
REMARK  284  A    between atoms: _936  and  _939
REMARK  285  A    between atoms: _939  and  _940
REMARK  286  A    between atoms: _940  and  _941
REMARK  287  A    between atoms: _950  and  _951
REMARK  288  A    between atoms: _951  and  _952
REMARK  289  A    between atoms: _951  and  _954
REMARK  290  A    between atoms: _954  and  _955
REMARK  291  A    between atoms: _955  and  _956
REMARK  292  A    between atoms: _955  and  _957
REMARK  293  A    between atoms: _969  and  _970
REMARK  294  A    between atoms: _970  and  _971
REMARK  295  A    between atoms: _970  and  _973
REMARK  296  A    between atoms: _973  and  _974
REMARK  297  A    between atoms: _986  and  _987
REMARK  298  A    between atoms: _987  and  _988
REMARK  299  A    between atoms: _987  and  _990
REMARK  300  A    between atoms: _990  and  _991
REMARK  301  A    between atoms: _990  and  _992
REMARK  302  A    between atoms: _991  and  _993
REMARK  303  A    between atoms: _1005  and  _1006
REMARK  304  A    between atoms: _1006  and  _1007
REMARK  305  A    between atoms: _1006  and  _1009
REMARK  306  A    between atoms: _1009  and  _1010
REMARK  307  A    between atoms: _1019  and  _1020
REMARK  308  A    between atoms: _1020  and  _1021
REMARK  309  A    between atoms: _1020  and  _1023
REMARK  310  A    between atoms: _1023  and  _1024
REMARK  311  A    between atoms: _1024  and  _1025
REMARK  312  A    between atoms: _1024  and  _1026
REMARK  313  A    between atoms: _1038  and  _1039
REMARK  314  A    between atoms: _1039  and  _1040
REMARK  315  A    between atoms: _1039  and  _1042
REMARK  316  A    between atoms: _1042  and  _1043
REMARK  317  A    between atoms: _1042  and  _1044
REMARK  318  A    between atoms: _1043  and  _1045
REMARK  319  A    between atoms: _1058  and  _1059
REMARK  320  A    between atoms: _1071  and  _1072
REMARK  321  A    between atoms: _1072  and  _1073
REMARK  322  A    between atoms: _1072  and  _1075
REMARK  323  A    between atoms: _1075  and  _1076
REMARK  324  A    between atoms: _1085  and  _1086
REMARK  325  A    between atoms: _1086  and  _1087
REMARK  326  A    between atoms: _1086  and  _1089
REMARK  327  A    between atoms: _1089  and  _1090
REMARK  328  A    between atoms: _1090  and  _1091
REMARK  329  A    between atoms: _1091  and  _1092
REMARK  330  A    between atoms: _1092  and  _1093
REMARK  331  A    between atoms: _1107  and  _1108
REMARK  332  A    between atoms: _1108  and  _1109
REMARK  333  A    between atoms: _1108  and  _1111
REMARK  334  A    between atoms: _1111  and  _1112
REMARK  335  A    between atoms: _1112  and  _1113
REMARK  336  A    between atoms: _1124  and  _1125
REMARK  337  A    between atoms: _1125  and  _1126
REMARK  338  A    between atoms: _1125  and  _1128
REMARK  339  A    between atoms: _1128  and  _1129
REMARK  340  A    between atoms: _1136  and  _1137
REMARK  341  A    between atoms: _1137  and  _1138
REMARK  342  A    between atoms: _1137  and  _1140
REMARK  343  A    between atoms: _1140  and  _1141
REMARK  344  A    between atoms: _1141  and  _1142
REMARK  345  A    between atoms: _1142  and  _1143
REMARK  346  A    between atoms: _1160  and  _1161
REMARK  347  A    between atoms: _1161  and  _1162
REMARK  348  A    between atoms: _1161  and  _1164
REMARK  349  A    between atoms: _1164  and  _1165
REMARK  350  A    between atoms: _1164  and  _1166
REMARK  351  A    between atoms: _1174  and  _1175
REMARK  352  A    between atoms: _1175  and  _1176
REMARK  353  A    between atoms: _1175  and  _1178
REMARK  354  A    between atoms: _1178  and  _1179
REMARK  355  A    between atoms: _1179  and  _1180
REMARK  356  A    between atoms: _1179  and  _1181
REMARK  357  A    between atoms: _1193  and  _1194
REMARK  358  A    between atoms: _1194  and  _1195
REMARK  359  A    between atoms: _1194  and  _1197
REMARK  360  A    between atoms: _1197  and  _1198
REMARK  361  A    between atoms: _1197  and  _1199
REMARK  362  A    between atoms: _1207  and  _1208
REMARK  363  A    between atoms: _1208  and  _1209
REMARK  364  A    between atoms: _1208  and  _1211
REMARK  365  A    between atoms: _1211  and  _1212
REMARK  366  A    between atoms: _1211  and  _1213
REMARK  367  A    between atoms: _1212  and  _1214
REMARK  368  A    between atoms: _1226  and  _1227
REMARK  369  A    between atoms: _1227  and  _1228
REMARK  370  A    between atoms: _1227  and  _1230
REMARK  371  A    between atoms: _1230  and  _1231
REMARK  372  A    between atoms: _1230  and  _1232
REMARK  373  A    between atoms: _1242  and  _1243
REMARK  374  A    between atoms: _1243  and  _1244
REMARK  375  A    between atoms: _1243  and  _1246
REMARK  376  A    between atoms: _1246  and  _1247
REMARK  377  A    between atoms: _1254  and  _1255
REMARK  378  A    between atoms: _1255  and  _1256
REMARK  379  A    between atoms: _1255  and  _1258
REMARK  380  A    between atoms: _1258  and  _1259
REMARK  381  A    between atoms: _1258  and  _1260
REMARK  382  A    between atoms: _1268  and  _1269
REMARK  383  A    between atoms: _1269  and  _1270
REMARK  384  A    between atoms: _1275  and  _1276
REMARK  385  A    between atoms: _1276  and  _1277
REMARK  386  A    between atoms: _1276  and  _1279
REMARK  387  A    between atoms: _1279  and  _1280
REMARK  388  A    between atoms: _1279  and  _1281
REMARK  389  A    between atoms: _1280  and  _1282
REMARK  390  A    between atoms: _1294  and  _1295
REMARK  391  A    between atoms: _1295  and  _1296
REMARK  392  A    between atoms: _1301  and  _1302
REMARK  393  A    between atoms: _1302  and  _1303
REMARK  394  A    between atoms: _1302  and  _1305
REMARK  395  A    between atoms: _1305  and  _1306
REMARK  396  A    between atoms: _1306  and  _1307
REMARK  397  A    between atoms: _1307  and  _1308
REMARK  398  A    between atoms: _1318  and  _1319
REMARK  399  A    between atoms: _1319  and  _1320
REMARK  400  A    between atoms: _1319  and  _1322
REMARK  401  A    between atoms: _1322  and  _1323
REMARK  402  A    between atoms: _1322  and  _1324
REMARK  403  A    between atoms: _1332  and  _1333
REMARK  404  A    between atoms: _1333  and  _1334
REMARK  405  A    between atoms: _1333  and  _1336
REMARK  406  A    between atoms: _1336  and  _1337
REMARK  407  A    between atoms: _1337  and  _1338
REMARK  408  A    between atoms: _1338  and  _1339
REMARK  409  A    between atoms: _1339  and  _1340
REMARK  410  A    between atoms: _1354  and  _1355
REMARK  411  A    between atoms: _1355  and  _1356
REMARK  412  A    between atoms: _1355  and  _1358
REMARK  413  A    between atoms: _1364  and  _1365
REMARK  414  A    between atoms: _1365  and  _1366
REMARK  415  A    between atoms: _1365  and  _1368
REMARK  416  A    between atoms: _1368  and  _1369
REMARK  417  A    between atoms: _1376  and  _1377
REMARK  418  A    between atoms: _1377  and  _1378
REMARK  419  A    between atoms: _1377  and  _1380
REMARK  420  A    between atoms: _1380  and  _1381
REMARK  421  A    between atoms: _1381  and  _1382
REMARK  422  A    between atoms: _1381  and  _1383
REMARK  423  A    between atoms: _1395  and  _1396
REMARK  424  A    between atoms: _1396  and  _1399
REMARK  425  A    between atoms: _1399  and  _1400
REMARK  426  A    between atoms: _1399  and  _1401
REMARK  427  A    between atoms: _1400  and  _1402
REMARK  428  A    between atoms: _1422  and  _1425
REMARK  429  A    between atoms: _1424  and  _1428
REMARK  430  A    between atoms: _1425  and  _1427
REMARK  431  A    between atoms: _1443  and  _1444
REMARK  432  A    between atoms: _1443  and  _1446
REMARK  433  A    between atoms: _1446  and  _1447
REMARK  434  A    between atoms: _1457  and  _1458
REMARK  435  A    between atoms: _1458  and  _1459
REMARK  436  A    between atoms: _1458  and  _1461
REMARK  437  A    between atoms: _1461  and  _1462
REMARK  438  A    between atoms: _1462  and  _1463
REMARK  439  A    between atoms: _1462  and  _1464
REMARK  440  A    between atoms: _1476  and  _1477
REMARK  441  A    between atoms: _1477  and  _1478
REMARK  442  A    between atoms: _1483  and  _1484
REMARK  443  A    between atoms: _1484  and  _1485
REMARK  444  A    between atoms: _1484  and  _1487
REMARK  445  A    between atoms: _1487  and  _1488
REMARK  446  A    between atoms: _1487  and  _1489
REMARK  447  A    between atoms: _1497  and  _1498
REMARK  448  A    between atoms: _1498  and  _1499
REMARK  449  A    between atoms: _1498  and  _1501
REMARK  450  A    between atoms: _1501  and  _1502
REMARK  451  A    between atoms: _1501  and  _1503
REMARK  452  A    between atoms: _1502  and  _1504
REMARK  453  A    between atoms: _1516  and  _1517
REMARK  454  A    between atoms: _1517  and  _1518
REMARK  455  A    between atoms: _1517  and  _1520
REMARK  456  A    between atoms: _1526  and  _1527
REMARK  457  A    between atoms: _1527  and  _1528
REMARK  458  A    between atoms: _1527  and  _1530
REMARK  459  A    between atoms: _1530  and  _1531
REMARK  460  A    between atoms: _1531  and  _1532
REMARK  461  A    between atoms: _1532  and  _1533
REMARK  462  A    between atoms: _1533  and  _1534
REMARK  463  A    between atoms: _1548  and  _1549
REMARK  464  A    between atoms: _1549  and  _1550
REMARK  465  A    between atoms: _1549  and  _1552
REMARK  466  A    between atoms: _1552  and  _1553
REMARK  467  A    between atoms: _1559  and  _1560
REMARK  468  A    between atoms: _1560  and  _1561
REMARK  469  A    between atoms: _1566  and  _1567
REMARK  470  A    between atoms: _1567  and  _1568
REMARK  471  A    between atoms: _1567  and  _1570
REMARK  472  A    between atoms: _1570  and  _1571
REMARK  473  A    between atoms: _1570  and  _1572
REMARK  474  A    between atoms: _1580  and  _1581
REMARK  475  A    between atoms: _1581  and  _1582
REMARK  476  A    between atoms: _1581  and  _1584
REMARK  477  A    between atoms: _1584  and  _1585
REMARK  478  A    between atoms: _1585  and  _1586
REMARK  479  A    between atoms: _1586  and  _1587
REMARK  480  A    between atoms: _1587  and  _1588
REMARK  481  A    between atoms: _1602  and  _1603
REMARK  482  A    between atoms: _1603  and  _1604
REMARK  483  A    between atoms: _1603  and  _1606
REMARK  484  A    between atoms: _1612  and  _1613
REMARK  485  A    between atoms: _1613  and  _1614
REMARK  486  A    between atoms: _1613  and  _1616
REMARK  487  A    between atoms: _1616  and  _1617
REMARK  488  A    between atoms: _1632  and  _1633
REMARK  489  A    between atoms: _1633  and  _1634
REMARK  490  A    between atoms: _1633  and  _1636
REMARK  491  A    between atoms: _1636  and  _1637
REMARK  492  A    between atoms: _1637  and  _1638
REMARK  493  A    between atoms: _1638  and  _1639
REMARK  494  A    between atoms: _1649  and  _1650
REMARK  495  A    between atoms: _1650  and  _1651
REMARK  496  A    between atoms: _1650  and  _1653
REMARK  497  A    between atoms: _1653  and  _1654
REMARK  498  A    between atoms: _1654  and  _1655
REMARK  499  A    between atoms: _1664  and  _1665
REMARK  500  A    between atoms: _1665  and  _1666
REMARK  501  A    between atoms: _1665  and  _1668
REMARK  502  A    between atoms: _1674  and  _1675
REMARK  503  A    between atoms: _1675  and  _1676
REMARK  504  A    between atoms: _1675  and  _1678
REMARK  505  A    between atoms: _1678  and  _1679
REMARK  506  A    between atoms: _1679  and  _1680
REMARK  507  A    between atoms: _1679  and  _1681
REMARK  508  A    between atoms: _1693  and  _1694
REMARK  509  A    between atoms: _1694  and  _1695
REMARK  510  A    between atoms: _1694  and  _1697
REMARK  511  A    between atoms: _1697  and  _1698
REMARK  512  A    between atoms: _1698  and  _1699
REMARK  513  A    between atoms: _1710  and  _1711
REMARK  514  A    between atoms: _1711  and  _1712
REMARK  515  A    between atoms: _1711  and  _1714
REMARK  516  A    between atoms: _1720  and  _1721
REMARK  517  A    between atoms: _1721  and  _1722
REMARK  518  A    between atoms: _1727  and  _1728
REMARK  519  A    between atoms: _1728  and  _1729
REMARK  520  A    between atoms: _1728  and  _1731
REMARK  521  A    between atoms: _1737  and  _1738
REMARK  522  A    between atoms: _1738  and  _1739
REMARK  523  A    between atoms: _1738  and  _1741
REMARK  524  A    between atoms: _1741  and  _1742
REMARK  525  A    between atoms: _1749  and  _1750
REMARK  526  A    between atoms: _1750  and  _1751
REMARK  527  A    between atoms: _1750  and  _1753
REMARK  528  A    between atoms: _1753  and  _1754
REMARK  529  A    between atoms: _1753  and  _1755
REMARK  530  A    between atoms: _1754  and  _1756
REMARK  531  A    between atoms: _1768  and  _1769
REMARK  532  A    between atoms: _1769  and  _1772
REMARK  533  A    between atoms: _1772  and  _1773
REMARK  534  A    between atoms: _1791  and  _1793
REMARK  535  A    between atoms: _1792  and  _1794
REMARK  536  A    between atoms: _1814  and  _1815
REMARK  537  A    between atoms: _1814  and  _1817
REMARK  538  A    between atoms: _1817  and  _1818
REMARK  539  A    between atoms: _1817  and  _1819
REMARK  540  A    between atoms: _1818  and  _1820
REMARK  541  A    between atoms: _1833  and  _1834
REMARK  542  A    between atoms: _1834  and  _1835
REMARK  543  A    between atoms: _1840  and  _1841
REMARK  544  A    between atoms: _1841  and  _1842
REMARK  545  A    between atoms: _1841  and  _1844
REMARK  546  A    between atoms: _1844  and  _1845
REMARK  547  A    between atoms: _1845  and  _1846
REMARK  548  A    between atoms: _1857  and  _1858
REMARK  549  A    between atoms: _1858  and  _1859
REMARK  550  A    between atoms: _1858  and  _1861
REMARK  551  A    between atoms: _1861  and  _1862
REMARK  552  A    between atoms: _1877  and  _1878
REMARK  553  A    between atoms: _1878  and  _1879
REMARK  554  A    between atoms: _1884  and  _1885
REMARK  555  A    between atoms: _1885  and  _1886
REMARK  556  A    between atoms: _1885  and  _1888
REMARK  557  A    between atoms: _1888  and  _1889
REMARK  558  A    between atoms: _1888  and  _1890
REMARK  559  A    between atoms: _1900  and  _1901
REMARK  560  A    between atoms: _1901  and  _1902
REMARK  561  A    between atoms: _1907  and  _1908
REMARK  562  A    between atoms: _1908  and  _1909
REMARK  563  A    between atoms: _1908  and  _1911
REMARK  564  A    between atoms: _1911  and  _1912
REMARK  565  A    between atoms: _1927  and  _1928
REMARK  566  A    between atoms: _1928  and  _1929
REMARK  567  A    between atoms: _1928  and  _1931
REMARK  568  A    between atoms: _1931  and  _1932
REMARK  569  A    between atoms: _1937  and  _1938
REMARK  570  A    between atoms: _1948  and  _1949
REMARK  571  A    between atoms: _1949  and  _1950
REMARK  572  A    between atoms: _1949  and  _1952
REMARK  573  A    between atoms: _1952  and  _1953
REMARK  574  A    between atoms: _1959  and  _1960
REMARK  575  A    between atoms: _1960  and  _1961
REMARK  576  A    between atoms: _1960  and  _1963
REMARK  577  A    between atoms: _1969  and  _1970
REMARK  578  A    between atoms: _1970  and  _1971
REMARK  579  A    between atoms: _1970  and  _1973
REMARK  580  A    between atoms: _1973  and  _1974
REMARK  581  A    between atoms: _1979  and  _1980
REMARK  582  A    between atoms: _1990  and  _1991
REMARK  583  A    between atoms: _1991  and  _1992
REMARK  584  A    between atoms: _1991  and  _1994
REMARK  585  A    between atoms: _1994  and  _1995
REMARK  586  A    between atoms: _1995  and  _1996
REMARK  587  A    between atoms: _1995  and  _1997
REMARK  588  A    between atoms: _2009  and  _2010
REMARK  589  A    between atoms: _2010  and  _2011
REMARK  590  A    between atoms: _2010  and  _2013
REMARK  591  A    between atoms: _2013  and  _2014
REMARK  592  A    between atoms: _2013  and  _2015
REMARK  593  A    between atoms: _2025  and  _2026
REMARK  594  A    between atoms: _2026  and  _2027
REMARK  595  A    between atoms: _2026  and  _2029
REMARK  596  A    between atoms: _2035  and  _2036
REMARK  597  A    between atoms: _2036  and  _2037
REMARK  598  A    between atoms: _2036  and  _2039
REMARK  599  A    between atoms: _2039  and  _2040
REMARK  600  A    between atoms: _2040  and  _2041
REMARK  601  A    between atoms: _2050  and  _2051
REMARK  602  A    between atoms: _2051  and  _2052
REMARK  603  A    between atoms: _2051  and  _2054
REMARK  604  A    between atoms: _2054  and  _2055
REMARK  605  A    between atoms: _2055  and  _2056
REMARK  606  A    between atoms: _2056  and  _2057
REMARK  607  A    between atoms: _2057  and  _2058
REMARK  608  A    between atoms: _2072  and  _2073
REMARK  609  A    between atoms: _2073  and  _2074
REMARK  610  A    between atoms: _2073  and  _2076
REMARK  611  A    between atoms: _2076  and  _2077
REMARK  612  A    between atoms: _2076  and  _2078
REMARK  613  A    between atoms: _2088  and  _2089
REMARK  614  A    between atoms: _2089  and  _2090
REMARK  615  A    between atoms: _2089  and  _2092
REMARK  616  A    between atoms: _2092  and  _2093
REMARK  617  A    between atoms: _2092  and  _2094
REMARK  618  A    between atoms: _2102  and  _2103
REMARK  619  A    between atoms: _2103  and  _2104
REMARK  620  A    between atoms: _2103  and  _2106
REMARK  621  A    between atoms: _2106  and  _2107
REMARK  622  A    between atoms: _2106  and  _2108
REMARK  623  A    between atoms: _2118  and  _2119
REMARK  624  A    between atoms: _2119  and  _2120
REMARK  625  A    between atoms: _2119  and  _2122
REMARK  626  A    between atoms: _2122  and  _2123
REMARK  627  A    between atoms: _2122  and  _2124
REMARK  628  A    between atoms: _2123  and  _2125
REMARK  629  A    between atoms: _2137  and  _2138
REMARK  630  A    between atoms: _2138  and  _2139
REMARK  631  A    between atoms: _2138  and  _2141
REMARK  632  A    between atoms: _2141  and  _2142
REMARK  633  A    between atoms: _2141  and  _2143
REMARK  634  A    between atoms: _2151  and  _2152
REMARK  635  A    between atoms: _2152  and  _2153
REMARK  636  A    between atoms: _2152  and  _2155
REMARK  637  A    between atoms: _2155  and  _2156
REMARK  638  A    between atoms: _2156  and  _2157
REMARK  639  A    between atoms: _2157  and  _2158
REMARK  640  A    between atoms: _2158  and  _2159
REMARK  641  A    between atoms: _2173  and  _2174
REMARK  642  A    between atoms: _2174  and  _2175
REMARK  643  A    between atoms: _2174  and  _2177
REMARK  644  A    between atoms: _2177  and  _2178
REMARK  645  A    between atoms: _2190  and  _2191
REMARK  646  A    between atoms: _2191  and  _2192
REMARK  647  A    between atoms: _2191  and  _2194
REMARK  648  A    between atoms: _2194  and  _2195
REMARK  649  A    between atoms: _2204  and  _2205
REMARK  650  A    between atoms: _2205  and  _2206
REMARK  651  A    between atoms: _2205  and  _2208
REMARK  652  A    between atoms: _2208  and  _2209
REMARK  653  A    between atoms: _2216  and  _2217
REMARK  654  A    between atoms: _2217  and  _2218
REMARK  655  A    between atoms: _2217  and  _2220
REMARK  656  A    between atoms: _2220  and  _2221
REMARK  657  A    between atoms: _2228  and  _2229
REMARK  658  A    between atoms: _2229  and  _2230
REMARK  659  A    between atoms: _2229  and  _2232
REMARK  660  A    between atoms: _2232  and  _2233
REMARK  661  A    between atoms: _2233  and  _2234
REMARK  662  A    between atoms: _2243  and  _2244
REMARK  663  A    between atoms: _2244  and  _2245
REMARK  664  A    between atoms: _2244  and  _2247
REMARK  665  A    between atoms: _2247  and  _2248
REMARK  666  A    between atoms: _2248  and  _2249
REMARK  667  A    between atoms: _2260  and  _2261
REMARK  668  A    between atoms: _2261  and  _2262
REMARK  669  A    between atoms: _2261  and  _2264
REMARK  670  A    between atoms: _2264  and  _2265
REMARK  671  A    between atoms: _2270  and  _2271
REMARK  672  A    between atoms: _2281  and  _2282
REMARK  673  A    between atoms: _2282  and  _2283
REMARK  674  A    between atoms: _2282  and  _2285
REMARK  675  A    between atoms: _2291  and  _2292
REMARK  676  A    between atoms: _2292  and  _2293
REMARK  677  A    between atoms: _2292  and  _2295
REMARK  678  A    between atoms: _2295  and  _2296
REMARK  679  A    between atoms: _2315  and  _2316
REMARK  680  A    between atoms: _2316  and  _2317
REMARK  681  A    between atoms: _2316  and  _2319
REMARK  682  A    between atoms: _2319  and  _2320
REMARK  683  A    between atoms: _2320  and  _2321
REMARK  684  A    between atoms: _2330  and  _2331
REMARK  685  A    between atoms: _2331  and  _2332
REMARK  686  A    between atoms: _2331  and  _2334
REMARK  687  A    between atoms: _2334  and  _2335
REMARK  688  A    between atoms: _2341  and  _2342
REMARK  689  A    between atoms: _2342  and  _2343
REMARK  690  A    between atoms: _2342  and  _2345
REMARK  691  A    between atoms: _2345  and  _2346
REMARK  692  A    between atoms: _2352  and  _2353
REMARK  693  A    between atoms: _2353  and  _2354
REMARK  694  A    between atoms: _2353  and  _2356
REMARK  695  A    between atoms: _2362  and  _2363
REMARK  696  A    between atoms: _2363  and  _2364
REMARK  697  A    between atoms: _2369  and  _2370
REMARK  698  A    between atoms: _2370  and  _2371
REMARK  699  A    between atoms: _2376  and  _2377
REMARK  700  A    between atoms: _2377  and  _2378
REMARK  701  A    between atoms: _2377  and  _2380
REMARK  702  A    between atoms: _2380  and  _2381
REMARK  703  A    between atoms: _2387  and  _2388
REMARK  704  A    between atoms: _2388  and  _2389
REMARK  705  A    between atoms: _2388  and  _2391
REMARK  706  A    between atoms: _2391  and  _2392
REMARK  707  A    between atoms: _2407  and  _2408
REMARK  708  A    between atoms: _2408  and  _2409
REMARK  709  A    between atoms: _2408  and  _2411
REMARK  710  A    between atoms: _2411  and  _2412
REMARK  711  A    between atoms: _2411  and  _2413
REMARK  712  A    between atoms: _2421  and  _2422
REMARK  713  A    between atoms: _2422  and  _2423
REMARK  714  A    between atoms: _2422  and  _2425
REMARK  715  A    between atoms: _2425  and  _2426
REMARK  716  A    between atoms: _2425  and  _2427
REMARK  717  A    between atoms: _2437  and  _2438
REMARK  718  A    between atoms: _2438  and  _2439
REMARK  719  A    between atoms: _2438  and  _2441
REMARK  720  A    between atoms: _2441  and  _2442
REMARK  721  A    between atoms: _2442  and  _2443
REMARK  722  A    between atoms: _2443  and  _2444
REMARK  723  A    between atoms: _2461  and  _2462
REMARK  724  A    between atoms: _2462  and  _2463
REMARK  725  A    between atoms: _2462  and  _2465
REMARK  726  A    between atoms: _2465  and  _2466
REMARK  727  A    between atoms: _2465  and  _2467
REMARK  728  A    between atoms: _2475  and  _2476
REMARK  729  A    between atoms: _2476  and  _2477
REMARK  730  A    between atoms: _2476  and  _2479
REMARK  731  A    between atoms: _2479  and  _2480
REMARK  732  A    between atoms: _2487  and  _2488
REMARK  733  A    between atoms: _2488  and  _2489
REMARK  734  A    between atoms: _2488  and  _2491
REMARK  735  A    between atoms: _2491  and  _2492
REMARK  736  A    between atoms: _2491  and  _2493
REMARK  737  A    between atoms: _2501  and  _2502
REMARK  738  A    between atoms: _2502  and  _2503
REMARK  739  A    between atoms: _2508  and  _2509
REMARK  740  A    between atoms: _2509  and  _2510
REMARK  741  A    between atoms: _2509  and  _2512
REMARK  742  A    between atoms: _2512  and  _2513
REMARK  743  A    between atoms: _2513  and  _2514
REMARK  744  A    between atoms: _2524  and  _2525
REMARK  745  A    between atoms: _2537  and  _2538
REMARK  746  A    between atoms: _2538  and  _2539
REMARK  747  A    between atoms: _2538  and  _2541
REMARK  748  A    between atoms: _2541  and  _2542
REMARK  749  A    between atoms: _2542  and  _2543
REMARK  750  A    between atoms: _2543  and  _2544
REMARK  751  A    between atoms: _2554  and  _2555
REMARK  752  A    between atoms: _2555  and  _2556
REMARK  753  A    between atoms: _2561  and  _2562
REMARK  754  A    between atoms: _2562  and  _2563
REMARK  755  A    between atoms: _2562  and  _2565
REMARK  756  A    between atoms: _2565  and  _2566
REMARK  757  A    between atoms: _2566  and  _2567
REMARK  758  A    between atoms: _2567  and  _2568
REMARK  759  A    between atoms: _2585  and  _2586
REMARK  760  A    between atoms: _2586  and  _2587
REMARK  761  A    between atoms: _2592  and  _2593
REMARK  762  A    between atoms: _2593  and  _2594
REMARK  763  A    between atoms: _2593  and  _2596
REMARK  764  A    between atoms: _2596  and  _2597
REMARK  765  A    between atoms: _2596  and  _2598
REMARK  766  A    between atoms: _2606  and  _2607
REMARK  767  A    between atoms: _2607  and  _2608
REMARK  768  A    between atoms: _2607  and  _2610
REMARK  769  A    between atoms: _2610  and  _2611
REMARK  770  A    between atoms: _2611  and  _2612
REMARK  771  A    between atoms: _2612  and  _2613
REMARK  772  A    between atoms: _2613  and  _2614
REMARK  773  A    between atoms: _2628  and  _2629
REMARK  774  A    between atoms: _2629  and  _2630
REMARK  775  A    between atoms: _2629  and  _2632
REMARK  776  A    between atoms: _2632  and  _2633
REMARK  777  A    between atoms: _2632  and  _2634
REMARK  778  A    between atoms: _2644  and  _2645
REMARK  779  A    between atoms: _2645  and  _2646
REMARK  780  A    between atoms: _2645  and  _2648
REMARK  781  A    between atoms: _2648  and  _2649
REMARK  782  A    between atoms: _2648  and  _2650
REMARK  783  A    between atoms: _2649  and  _2651
REMARK  784  A    between atoms: _2663  and  _2664
REMARK  785  A    between atoms: _2664  and  _2665
REMARK  786  A    between atoms: _2664  and  _2667
REMARK  787  A    between atoms: _2667  and  _2668
REMARK  788  A    between atoms: _2668  and  _2669
REMARK  789  A    between atoms: _2668  and  _2670
REMARK  790  A    between atoms: _2682  and  _2683
REMARK  791  A    between atoms: _2683  and  _2684
REMARK  792  A    between atoms: _2683  and  _2686
REMARK  793  A    between atoms: _2686  and  _2687
REMARK  794  A    between atoms: _2699  and  _2700
REMARK  795  A    between atoms: _2700  and  _2701
REMARK  796  A    between atoms: _2700  and  _2703
REMARK  797  A    between atoms: _2703  and  _2704
REMARK  798  A    between atoms: _2704  and  _2705
REMARK  799  A    between atoms: _2704  and  _2706
REMARK  800  A    between atoms: _2718  and  _2719
REMARK  801  A    between atoms: _2719  and  _2720
REMARK  802  A    between atoms: _2719  and  _2722
REMARK  803  A    between atoms: _2722  and  _2723
REMARK  804  A    between atoms: _2723  and  _2724
REMARK  805  A    between atoms: _2724  and  _2725
REMARK  806  A    between atoms: _2725  and  _2726
REMARK  807  A    between atoms: _2740  and  _2741
REMARK  808  A    between atoms: _2741  and  _2742
REMARK  809  A    between atoms: _2741  and  _2744
REMARK  810  A    between atoms: _2744  and  _2745
REMARK  811  A    between atoms: _2745  and  _2746
REMARK  812  A    between atoms: _2755  and  _2756
REMARK  813  A    between atoms: _2756  and  _2757
REMARK  814  A    between atoms: _2756  and  _2759
REMARK  815  A    between atoms: _2759  and  _2760
REMARK  816  A    between atoms: _2767  and  _2768
REMARK  817  A    between atoms: _2768  and  _2769
REMARK  818  A    between atoms: _2768  and  _2771
REMARK  819  A    between atoms: _2771  and  _2772
REMARK  820  A    between atoms: _2772  and  _2773
REMARK  821  A    between atoms: _2784  and  _2785
REMARK  822  A    between atoms: _2785  and  _2786
REMARK  823  A    between atoms: _2785  and  _2788
REMARK  824  A    between atoms: _2788  and  _2789
REMARK  825  A    between atoms: _2788  and  _2790
REMARK  826  A    between atoms: _2798  and  _2799
REMARK  827  A    between atoms: _2799  and  _2800
REMARK  828  A    between atoms: _2799  and  _2802
REMARK  829  A    between atoms: _2802  and  _2803
REMARK  830  A    between atoms: _2803  and  _2804
REMARK  831  A    between atoms: _2813  and  _2814
REMARK  832  A    between atoms: _2814  and  _2815
REMARK  833  A    between atoms: _2814  and  _2817
REMARK  834  A    between atoms: _2817  and  _2818
REMARK  835  A    between atoms: _2823  and  _2824
REMARK  836  A    between atoms: _2834  and  _2835
REMARK  837  A    between atoms: _2835  and  _2838
REMARK  838  A    between atoms: _2838  and  _2839
REMARK  839  A    between atoms: _2839  and  _2840
REMARK  840  A    between atoms: _2839  and  _2841
REMARK  841  A    between atoms: _2884  and  _2885
REMARK  842  A    between atoms: _2884  and  _2887
REMARK  843  A    between atoms: _2887  and  _2888
REMARK  844  A    between atoms: _2888  and  _2889
REMARK  845  A    between atoms: _2899  and  _2900
REMARK  846  A    between atoms: _2900  and  _2901
REMARK  847  A    between atoms: _2900  and  _2903
REMARK  848  A    between atoms: _2903  and  _2904
REMARK  849  A    between atoms: _2904  and  _2905
REMARK  850  A    between atoms: _2905  and  _2906
REMARK  851  A    between atoms: _2923  and  _2924
REMARK  852  A    between atoms: _2924  and  _2925
REMARK  853  A    between atoms: _2924  and  _2927
REMARK  854  A    between atoms: _2927  and  _2928
REMARK  855  A    between atoms: _2928  and  _2929
REMARK  856  A    between atoms: _2929  and  _2930
REMARK  857  A    between atoms: _2947  and  _2948
REMARK  858  A    between atoms: _2948  and  _2949
REMARK  859  A    between atoms: _2948  and  _2951
REMARK  860  A    between atoms: _2951  and  _2952
REMARK  861  A    between atoms: _2951  and  _2953
REMARK  862  A    between atoms: _2952  and  _2954
REMARK  863  A    between atoms: _2966  and  _2967
REMARK  864  A    between atoms: _2967  and  _2968
REMARK  865  A    between atoms: _2967  and  _2970
REMARK  866  A    between atoms: _2970  and  _2971
REMARK  867  A    between atoms: _2971  and  _2972
REMARK  868  A    between atoms: _2972  and  _2973
REMARK  869  A    between atoms: _2973  and  _2974
REMARK  870  A    between atoms: _2988  and  _2989
REMARK  871  A    between atoms: _2989  and  _2990
REMARK  872  A    between atoms: _2989  and  _2992
REMARK  873  A    between atoms: _2992  and  _2993
REMARK  874  A    between atoms: _2993  and  _2994
REMARK  875  A    between atoms: _3003  and  _3004
REMARK  876  A    between atoms: _3004  and  _3005
REMARK  877  A    between atoms: _3004  and  _3007
REMARK  878  A    between atoms: _3007  and  _3008
REMARK  879  A    between atoms: _3007  and  _3009
REMARK  880  A    between atoms: _3008  and  _3010
REMARK  881  A    between atoms: _3022  and  _3023
REMARK  882  A    between atoms: _3023  and  _3024
REMARK  883  A    between atoms: _3023  and  _3026
REMARK  884  A    between atoms: _3026  and  _3027
REMARK  885  A    between atoms: _3026  and  _3028
REMARK  886  A    between atoms: _3038  and  _3039
REMARK  887  A    between atoms: _3039  and  _3040
REMARK  888  A    between atoms: _3039  and  _3042
REMARK  889  A    between atoms: _3042  and  _3043
REMARK  890  A    between atoms: _3043  and  _3044
REMARK  891  A    between atoms: _3044  and  _3045
REMARK  892  A    between atoms: _3045  and  _3046
REMARK  893  A    between atoms: _3060  and  _3061
REMARK  894  A    between atoms: _3061  and  _3062
REMARK  895  A    between atoms: _3061  and  _3064
REMARK  896  A    between atoms: _3064  and  _3065
REMARK  897  A    between atoms: _3065  and  _3066
REMARK  898  A    between atoms: _3066  and  _3067
REMARK  899  A    between atoms: _3067  and  _3068
REMARK  900  A    between atoms: _3082  and  _3083
REMARK  901  A    between atoms: _3083  and  _3084
REMARK  902  A    between atoms: _3083  and  _3086
REMARK  903  A    between atoms: _3086  and  _3087
REMARK  904  A    between atoms: _3099  and  _3100
REMARK  905  A    between atoms: _3100  and  _3101
REMARK  906  A    between atoms: _3100  and  _3103
REMARK  907  A    between atoms: _3103  and  _3104
REMARK  908  A    between atoms: _3110  and  _3111
REMARK  909  A    between atoms: _3111  and  _3112
REMARK  910  A    between atoms: _3111  and  _3114
REMARK  911  A    between atoms: _3114  and  _3115
REMARK  912  A    between atoms: _3115  and  _3116
REMARK  913  A    between atoms: _3127  and  _3128
REMARK  914  A    between atoms: _3128  and  _3129
REMARK  915  A    between atoms: _3128  and  _3131
REMARK  916  A    between atoms: _3131  and  _3132
REMARK  917  A    between atoms: _3147  and  _3148
REMARK  918  A    between atoms: _3148  and  _3149
REMARK  919  A    between atoms: _3148  and  _3151
REMARK  920  A    between atoms: _3151  and  _3152
REMARK  921  A    between atoms: _3151  and  _3153
REMARK  922  A    between atoms: _3152  and  _3154
REMARK  923  A    between atoms: _3166  and  _3167
REMARK  924  A    between atoms: _3167  and  _3168
REMARK  925  A    between atoms: _3173  and  _3174
REMARK  926  A    between atoms: _3174  and  _3175
REMARK  927  A    between atoms: _3174  and  _3177
REMARK  928  A    between atoms: _3177  and  _3178
REMARK  929  A    between atoms: _3183  and  _3184
REMARK  930  A    between atoms: _3195  and  _3196
REMARK  931  A    between atoms: _3208  and  _3209
REMARK  932  A    between atoms: _3209  and  _3210
REMARK  933  A    between atoms: _3209  and  _3212
REMARK  934  A    between atoms: _3212  and  _3213
REMARK  935  A    between atoms: _3212  and  _3214
REMARK  936  A    between atoms: _3213  and  _3215
REMARK  937  A    between atoms: _3227  and  _3228
REMARK  938  A    between atoms: _3228  and  _3229
REMARK  939  A    between atoms: _3228  and  _3231
REMARK  940  A    between atoms: _3231  and  _3232
REMARK  941  A    between atoms: _3231  and  _3233
REMARK  942  A    between atoms: _3241  and  _3242
REMARK  943  A    between atoms: _3242  and  _3243
REMARK  944  A    between atoms: _3242  and  _3245
REMARK  945  A    between atoms: _3245  and  _3246
REMARK  946  A    between atoms: _3246  and  _3247
REMARK  947  A    between atoms: _3246  and  _3248
REMARK  948  A    between atoms: _3260  and  _3261
REMARK  949  A    between atoms: _3261  and  _3262
REMARK  950  A    between atoms: _3261  and  _3264
REMARK  951  A    between atoms: _3264  and  _3265
REMARK  952  A    between atoms: _3280  and  _3281
REMARK  953  A    between atoms: _3281  and  _3282
REMARK  954  A    between atoms: _3281  and  _3284
REMARK  955  A    between atoms: _3284  and  _3285
REMARK  956  A    between atoms: _3284  and  _3286
REMARK  957  A    between atoms: _3296  and  _3297
REMARK  958  A    between atoms: _3297  and  _3298
REMARK  959  A    between atoms: _3297  and  _3300
REMARK  960  A    between atoms: _3300  and  _3301
REMARK  961  A    between atoms: _3301  and  _3302
REMARK                            x       y       z     vdW  Elec       q    Type
REMARK                         _______ _______ _______ _____ _____    ______ ____
ROOT
ATOM      1  C   UNL     1      -9.229  19.981  42.644  0.00  0.00    +0.000 C 
ENDROOT
TORSDOF 0
REMARK  Name = /Users/mlugowska/PhD/ML_residence_time_prediction/protein_files/5J20_protein.pdb
REMARK  961 active torsions:
REMARK  status: ('A' for Active; 'I' for Inactive)
REMARK    1  A    between atoms: _2  and  _3
REMARK    2  A    between atoms: _2  and  _5
REMARK    3  A    between atoms: _10  and  _11
REMARK    4  A    between atoms: _11  and  _12
REMARK    5  A    between atoms: _11  and  _14
REMARK    6  A    between atoms: _14  and  _15
REMARK    7  A    between atoms: _14  and  _16
REMARK    8  A    between atoms: _26  and  _27
REMARK    9  A    between atoms: _27  and  _28
REMARK   10  A    between atoms: _27  and  _30
REMARK   11  A    between atoms: _30  and  _31
REMARK   12  A    between atoms: _31  and  _32
REMARK   13  A    between atoms: _41  and  _42
REMARK   14  A    between atoms: _42  and  _43
REMARK   15  A    between atoms: _42  and  _45
REMARK   16  A    between atoms: _45  and  _46
REMARK   17  A    between atoms: _45  and  _47
REMARK   18  A    between atoms: _55  and  _56
REMARK   19  A    between atoms: _56  and  _57
REMARK   20  A    between atoms: _56  and  _59
REMARK   21  A    between atoms: _59  and  _60
REMARK   22  A    between atoms: _75  and  _76
REMARK   23  A    between atoms: _76  and  _77
REMARK   24  A    between atoms: _76  and  _79
REMARK   25  A    between atoms: _85  and  _86
REMARK   26  A    between atoms: _86  and  _87
REMARK   27  A    between atoms: _86  and  _89
REMARK   28  A    between atoms: _89  and  _90
REMARK   29  A    between atoms: _105  and  _106
REMARK   30  A    between atoms: _106  and  _107
REMARK   31  A    between atoms: _106  and  _109
REMARK   32  A    between atoms: _109  and  _110
REMARK   33  A    between atoms: _110  and  _111
REMARK   34  A    between atoms: _122  and  _123
REMARK   35  A    between atoms: _123  and  _124
REMARK   36  A    between atoms: _123  and  _126
REMARK   37  A    between atoms: _132  and  _133
REMARK   38  A    between atoms: _133  and  _134
REMARK   39  A    between atoms: _133  and  _136
REMARK   40  A    between atoms: _136  and  _137
REMARK   41  A    between atoms: _137  and  _138
REMARK   42  A    between atoms: _147  and  _148
REMARK   43  A    between atoms: _148  and  _149
REMARK   44  A    between atoms: _148  and  _151
REMARK   45  A    between atoms: _151  and  _152
REMARK   46  A    between atoms: _151  and  _153
REMARK   47  A    between atoms: _152  and  _154
REMARK   48  A    between atoms: _166  and  _167
REMARK   49  A    between atoms: _167  and  _168
REMARK   50  A    between atoms: _167  and  _170
REMARK   51  A    between atoms: _176  and  _177
REMARK   52  A    between atoms: _177  and  _178
REMARK   53  A    between atoms: _177  and  _180
REMARK   54  A    between atoms: _180  and  _181
REMARK   55  A    between atoms: _181  and  _182
REMARK   56  A    between atoms: _193  and  _194
REMARK   57  A    between atoms: _194  and  _195
REMARK   58  A    between atoms: _194  and  _197
REMARK   59  A    between atoms: _197  and  _198
REMARK   60  A    between atoms: _198  and  _199
REMARK   61  A    between atoms: _198  and  _200
REMARK   62  A    between atoms: _212  and  _213
REMARK   63  A    between atoms: _213  and  _214
REMARK   64  A    between atoms: _213  and  _216
REMARK   65  A    between atoms: _216  and  _217
REMARK   66  A    between atoms: _217  and  _218
REMARK   67  A    between atoms: _218  and  _219
REMARK   68  A    between atoms: _229  and  _230
REMARK   69  A    between atoms: _230  and  _231
REMARK   70  A    between atoms: _230  and  _233
REMARK   71  A    between atoms: _233  and  _234
REMARK   72  A    between atoms: _240  and  _241
REMARK   73  A    between atoms: _241  and  _242
REMARK   74  A    between atoms: _241  and  _244
REMARK   75  A    between atoms: _244  and  _245
REMARK   76  A    between atoms: _245  and  _246
REMARK   77  A    between atoms: _245  and  _247
REMARK   78  A    between atoms: _259  and  _260
REMARK   79  A    between atoms: _260  and  _261
REMARK   80  A    between atoms: _260  and  _263
REMARK   81  A    between atoms: _263  and  _264
REMARK   82  A    between atoms: _263  and  _265
REMARK   83  A    between atoms: _264  and  _266
REMARK   84  A    between atoms: _278  and  _279
REMARK   85  A    between atoms: _279  and  _280
REMARK   86  A    between atoms: _279  and  _282
REMARK   87  A    between atoms: _282  and  _283
REMARK   88  A    between atoms: _282  and  _284
REMARK   89  A    between atoms: _283  and  _285
REMARK   90  A    between atoms: _297  and  _298
REMARK   91  A    between atoms: _298  and  _299
REMARK   92  A    between atoms: _298  and  _301
REMARK   93  A    between atoms: _301  and  _302
REMARK   94  A    between atoms: _311  and  _312
REMARK   95  A    between atoms: _312  and  _313
REMARK   96  A    between atoms: _312  and  _315
REMARK   97  A    between atoms: _315  and  _316
REMARK   98  A    between atoms: _315  and  _317
REMARK   99  A    between atoms: _325  and  _326
REMARK  100  A    between atoms: _326  and  _327
REMARK  101  A    between atoms: _326  and  _329
REMARK  102  A    between atoms: _329  and  _330
REMARK  103  A    between atoms: _345  and  _346
REMARK  104  A    between atoms: _346  and  _347
REMARK  105  A    between atoms: _346  and  _349
REMARK  106  A    between atoms: _349  and  _350
REMARK  107  A    between atoms: _355  and  _356
REMARK  108  A    between atoms: _366  and  _367
REMARK  109  A    between atoms: _367  and  _368
REMARK  110  A    between atoms: _367  and  _370
REMARK  111  A    between atoms: _370  and  _371
REMARK  112  A    between atoms: _377  and  _378
REMARK  113  A    between atoms: _378  and  _379
REMARK  114  A    between atoms: _378  and  _381
REMARK  115  A    between atoms: _381  and  _382
REMARK  116  A    between atoms: _391  and  _392
REMARK  117  A    between atoms: _392  and  _393
REMARK  118  A    between atoms: _392  and  _395
REMARK  119  A    between atoms: _395  and  _396
REMARK  120  A    between atoms: _396  and  _397
REMARK  121  A    between atoms: _397  and  _398
REMARK  122  A    between atoms: _398  and  _399
REMARK  123  A    between atoms: _413  and  _414
REMARK  124  A    between atoms: _414  and  _415
REMARK  125  A    between atoms: _414  and  _417
REMARK  126  A    between atoms: _417  and  _418
REMARK  127  A    between atoms: _418  and  _419
REMARK  128  A    between atoms: _428  and  _429
REMARK  129  A    between atoms: _429  and  _430
REMARK  130  A    between atoms: _429  and  _432
REMARK  131  A    between atoms: _432  and  _433
REMARK  132  A    between atoms: _432  and  _434
REMARK  133  A    between atoms: _433  and  _435
REMARK  134  A    between atoms: _447  and  _448
REMARK  135  A    between atoms: _448  and  _449
REMARK  136  A    between atoms: _448  and  _451
REMARK  137  A    between atoms: _451  and  _452
REMARK  138  A    between atoms: _467  and  _468
REMARK  139  A    between atoms: _468  and  _469
REMARK  140  A    between atoms: _468  and  _471
REMARK  141  A    between atoms: _471  and  _472
REMARK  142  A    between atoms: _472  and  _473
REMARK  143  A    between atoms: _472  and  _474
REMARK  144  A    between atoms: _486  and  _487
REMARK  145  A    between atoms: _487  and  _488
REMARK  146  A    between atoms: _487  and  _490
REMARK  147  A    between atoms: _490  and  _491
REMARK  148  A    between atoms: _491  and  _492
REMARK  149  A    between atoms: _492  and  _493
REMARK  150  A    between atoms: _510  and  _511
REMARK  151  A    between atoms: _511  and  _512
REMARK  152  A    between atoms: _511  and  _514
REMARK  153  A    between atoms: _514  and  _515
REMARK  154  A    between atoms: _515  and  _516
REMARK  155  A    between atoms: _525  and  _526
REMARK  156  A    between atoms: _526  and  _527
REMARK  157  A    between atoms: _526  and  _529
REMARK  158  A    between atoms: _529  and  _530
REMARK  159  A    between atoms: _530  and  _531
REMARK  160  A    between atoms: _530  and  _532
REMARK  161  A    between atoms: _544  and  _545
REMARK  162  A    between atoms: _545  and  _546
REMARK  163  A    between atoms: _545  and  _548
REMARK  164  A    between atoms: _548  and  _549
REMARK  165  A    between atoms: _548  and  _550
REMARK  166  A    between atoms: _549  and  _551
REMARK  167  A    between atoms: _563  and  _564
REMARK  168  A    between atoms: _564  and  _565
REMARK  169  A    between atoms: _564  and  _567
REMARK  170  A    between atoms: _567  and  _568
REMARK  171  A    between atoms: _574  and  _575
REMARK  172  A    between atoms: _575  and  _576
REMARK  173  A    between atoms: _575  and  _578
REMARK  174  A    between atoms: _578  and  _579
REMARK  175  A    between atoms: _588  and  _589
REMARK  176  A    between atoms: _589  and  _590
REMARK  177  A    between atoms: _589  and  _592
REMARK  178  A    between atoms: _592  and  _593
REMARK  179  A    between atoms: _599  and  _600
REMARK  180  A    between atoms: _600  and  _601
REMARK  181  A    between atoms: _600  and  _603
REMARK  182  A    between atoms: _603  and  _604
REMARK  183  A    between atoms: _610  and  _611
REMARK  184  A    between atoms: _611  and  _612
REMARK  185  A    between atoms: _611  and  _614
REMARK  186  A    between atoms: _614  and  _615
REMARK  187  A    between atoms: _622  and  _623
REMARK  188  A    between atoms: _623  and  _624
REMARK  189  A    between atoms: _623  and  _626
REMARK  190  A    between atoms: _632  and  _633
REMARK  191  A    between atoms: _633  and  _634
REMARK  192  A    between atoms: _633  and  _636
REMARK  193  A    between atoms: _636  and  _637
REMARK  194  A    between atoms: _637  and  _638
REMARK  195  A    between atoms: _637  and  _639
REMARK  196  A    between atoms: _651  and  _652
REMARK  197  A    between atoms: _652  and  _653
REMARK  198  A    between atoms: _652  and  _655
REMARK  199  A    between atoms: _655  and  _656
REMARK  200  A    between atoms: _663  and  _664
REMARK  201  A    between atoms: _664  and  _665
REMARK  202  A    between atoms: _664  and  _667
REMARK  203  A    between atoms: _667  and  _668
REMARK  204  A    between atoms: _668  and  _669
REMARK  205  A    between atoms: _669  and  _670
REMARK  206  A    between atoms: _670  and  _671
REMARK  207  A    between atoms: _685  and  _686
REMARK  208  A    between atoms: _686  and  _687
REMARK  209  A    between atoms: _686  and  _689
REMARK  210  A    between atoms: _689  and  _690
REMARK  211  A    between atoms: _689  and  _691
REMARK  212  A    between atoms: _690  and  _692
REMARK  213  A    between atoms: _704  and  _705
REMARK  214  A    between atoms: _705  and  _706
REMARK  215  A    between atoms: _705  and  _708
REMARK  216  A    between atoms: _708  and  _709
REMARK  217  A    between atoms: _709  and  _710
REMARK  218  A    between atoms: _710  and  _711
REMARK  219  A    between atoms: _728  and  _729
REMARK  220  A    between atoms: _729  and  _730
REMARK  221  A    between atoms: _729  and  _732
REMARK  222  A    between atoms: _732  and  _733
REMARK  223  A    between atoms: _738  and  _739
REMARK  224  A    between atoms: _749  and  _750
REMARK  225  A    between atoms: _750  and  _751
REMARK  226  A    between atoms: _750  and  _753
REMARK  227  A    between atoms: _753  and  _754
REMARK  228  A    between atoms: _754  and  _755
REMARK  229  A    between atoms: _764  and  _765
REMARK  230  A    between atoms: _765  and  _766
REMARK  231  A    between atoms: _765  and  _768
REMARK  232  A    between atoms: _772  and  _773
REMARK  233  A    between atoms: _773  and  _774
REMARK  234  A    between atoms: _773  and  _776
REMARK  235  A    between atoms: _776  and  _777
REMARK  236  A    between atoms: _777  and  _778
REMARK  237  A    between atoms: _777  and  _779
REMARK  238  A    between atoms: _791  and  _792
REMARK  239  A    between atoms: _792  and  _793
REMARK  240  A    between atoms: _792  and  _795
REMARK  241  A    between atoms: _795  and  _796
REMARK  242  A    between atoms: _795  and  _797
REMARK  243  A    between atoms: _805  and  _806
REMARK  244  A    between atoms: _806  and  _807
REMARK  245  A    between atoms: _806  and  _809
REMARK  246  A    between atoms: _809  and  _810
REMARK  247  A    between atoms: _818  and  _819
REMARK  248  A    between atoms: _831  and  _832
REMARK  249  A    between atoms: _832  and  _833
REMARK  250  A    between atoms: _832  and  _835
REMARK  251  A    between atoms: _835  and  _836
REMARK  252  A    between atoms: _842  and  _843
REMARK  253  A    between atoms: _843  and  _844
REMARK  254  A    between atoms: _843  and  _846
REMARK  255  A    between atoms: _846  and  _847
REMARK  256  A    between atoms: _847  and  _848
REMARK  257  A    between atoms: _848  and  _849
REMARK  258  A    between atoms: _849  and  _850
REMARK  259  A    between atoms: _864  and  _865
REMARK  260  A    between atoms: _865  and  _866
REMARK  261  A    between atoms: _865  and  _868
REMARK  262  A    between atoms: _868  and  _869
REMARK  263  A    between atoms: _869  and  _870
REMARK  264  A    between atoms: _869  and  _871
REMARK  265  A    between atoms: _883  and  _884
REMARK  266  A    between atoms: _884  and  _885
REMARK  267  A    between atoms: _884  and  _887
REMARK  268  A    between atoms: _887  and  _888
REMARK  269  A    between atoms: _895  and  _896
REMARK  270  A    between atoms: _896  and  _897
REMARK  271  A    between atoms: _896  and  _899
REMARK  272  A    between atoms: _899  and  _900
REMARK  273  A    between atoms: _906  and  _907
REMARK  274  A    between atoms: _907  and  _908
REMARK  275  A    between atoms: _913  and  _914
REMARK  276  A    between atoms: _914  and  _915
REMARK  277  A    between atoms: _914  and  _917
REMARK  278  A    between atoms: _917  and  _918
REMARK  279  A    between atoms: _918  and  _919
REMARK  280  A    between atoms: _919  and  _920
REMARK  281  A    between atoms: _920  and  _921
REMARK  282  A    between atoms: _935  and  _936
REMARK  283  A    between atoms: _936  and  _937
REMARK  284  A    between atoms: _936  and  _939
REMARK  285  A    between atoms: _939  and  _940
REMARK  286  A    between atoms: _940  and  _941
REMARK  287  A    between atoms: _950  and  _951
REMARK  288  A    between atoms: _951  and  _952
REMARK  289  A    between atoms: _951  and  _954
REMARK  290  A    between atoms: _954  and  _955
REMARK  291  A    between atoms: _955  and  _956
REMARK  292  A    between atoms: _955  and  _957
REMARK  293  A    between atoms: _969  and  _970
REMARK  294  A    between atoms: _970  and  _971
REMARK  295  A    between atoms: _970  and  _973
REMARK  296  A    between atoms: _973  and  _974
REMARK  297  A    between atoms: _986  and  _987
REMARK  298  A    between atoms: _987  and  _988
REMARK  299  A    between atoms: _987  and  _990
REMARK  300  A    between atoms: _990  and  _991
REMARK  301  A    between atoms: _990  and  _992
REMARK  302  A    between atoms: _991  and  _993
REMARK  303  A    between atoms: _1005  and  _1006
REMARK  304  A    between atoms: _1006  and  _1007
REMARK  305  A    between atoms: _1006  and  _1009
REMARK  306  A    between atoms: _1009  and  _1010
REMARK  307  A    between atoms: _1019  and  _1020
REMARK  308  A    between atoms: _1020  and  _1021
REMARK  309  A    between atoms: _1020  and  _1023
REMARK  310  A    between atoms: _1023  and  _1024
REMARK  311  A    between atoms: _1024  and  _1025
REMARK  312  A    between atoms: _1024  and  _1026
REMARK  313  A    between atoms: _1038  and  _1039
REMARK  314  A    between atoms: _1039  and  _1040
REMARK  315  A    between atoms: _1039  and  _1042
REMARK  316  A    between atoms: _1042  and  _1043
REMARK  317  A    between atoms: _1042  and  _1044
REMARK  318  A    between atoms: _1043  and  _1045
REMARK  319  A    between atoms: _1058  and  _1059
REMARK  320  A    between atoms: _1071  and  _1072
REMARK  321  A    between atoms: _1072  and  _1073
REMARK  322  A    between atoms: _1072  and  _1075
REMARK  323  A    between atoms: _1075  and  _1076
REMARK  324  A    between atoms: _1085  and  _1086
REMARK  325  A    between atoms: _1086  and  _1087
REMARK  326  A    between atoms: _1086  and  _1089
REMARK  327  A    between atoms: _1089  and  _1090
REMARK  328  A    between atoms: _1090  and  _1091
REMARK  329  A    between atoms: _1091  and  _1092
REMARK  330  A    between atoms: _1092  and  _1093
REMARK  331  A    between atoms: _1107  and  _1108
REMARK  332  A    between atoms: _1108  and  _1109
REMARK  333  A    between atoms: _1108  and  _1111
REMARK  334  A    between atoms: _1111  and  _1112
REMARK  335  A    between atoms: _1112  and  _1113
REMARK  336  A    between atoms: _1124  and  _1125
REMARK  337  A    between atoms: _1125  and  _1126
REMARK  338  A    between atoms: _1125  and  _1128
REMARK  339  A    between atoms: _1128  and  _1129
REMARK  340  A    between atoms: _1136  and  _1137
REMARK  341  A    between atoms: _1137  and  _1138
REMARK  342  A    between atoms: _1137  and  _1140
REMARK  343  A    between atoms: _1140  and  _1141
REMARK  344  A    between atoms: _1141  and  _1142
REMARK  345  A    between atoms: _1142  and  _1143
REMARK  346  A    between atoms: _1160  and  _1161
REMARK  347  A    between atoms: _1161  and  _1162
REMARK  348  A    between atoms: _1161  and  _1164
REMARK  349  A    between atoms: _1164  and  _1165
REMARK  350  A    between atoms: _1164  and  _1166
REMARK  351  A    between atoms: _1174  and  _1175
REMARK  352  A    between atoms: _1175  and  _1176
REMARK  353  A    between atoms: _1175  and  _1178
REMARK  354  A    between atoms: _1178  and  _1179
REMARK  355  A    between atoms: _1179  and  _1180
REMARK  356  A    between atoms: _1179  and  _1181
REMARK  357  A    between atoms: _1193  and  _1194
REMARK  358  A    between atoms: _1194  and  _1195
REMARK  359  A    between atoms: _1194  and  _1197
REMARK  360  A    between atoms: _1197  and  _1198
REMARK  361  A    between atoms: _1197  and  _1199
REMARK  362  A    between atoms: _1207  and  _1208
REMARK  363  A    between atoms: _1208  and  _1209
REMARK  364  A    between atoms: _1208  and  _1211
REMARK  365  A    between atoms: _1211  and  _1212
REMARK  366  A    between atoms: _1211  and  _1213
REMARK  367  A    between atoms: _1212  and  _1214
REMARK  368  A    between atoms: _1226  and  _1227
REMARK  369  A    between atoms: _1227  and  _1228
REMARK  370  A    between atoms: _1227  and  _1230
REMARK  371  A    between atoms: _1230  and  _1231
REMARK  372  A    between atoms: _1230  and  _1232
REMARK  373  A    between atoms: _1242  and  _1243
REMARK  374  A    between atoms: _1243  and  _1244
REMARK  375  A    between atoms: _1243  and  _1246
REMARK  376  A    between atoms: _1246  and  _1247
REMARK  377  A    between atoms: _1254  and  _1255
REMARK  378  A    between atoms: _1255  and  _1256
REMARK  379  A    between atoms: _1255  and  _1258
REMARK  380  A    between atoms: _1258  and  _1259
REMARK  381  A    between atoms: _1258  and  _1260
REMARK  382  A    between atoms: _1268  and  _1269
REMARK  383  A    between atoms: _1269  and  _1270
REMARK  384  A    between atoms: _1275  and  _1276
REMARK  385  A    between atoms: _1276  and  _1277
REMARK  386  A    between atoms: _1276  and  _1279
REMARK  387  A    between atoms: _1279  and  _1280
REMARK  388  A    between atoms: _1279  and  _1281
REMARK  389  A    between atoms: _1280  and  _1282
REMARK  390  A    between atoms: _1294  and  _1295
REMARK  391  A    between atoms: _1295  and  _1296
REMARK  392  A    between atoms: _1301  and  _1302
REMARK  393  A    between atoms: _1302  and  _1303
REMARK  394  A    between atoms: _1302  and  _1305
REMARK  395  A    between atoms: _1305  and  _1306
REMARK  396  A    between atoms: _1306  and  _1307
REMARK  397  A    between atoms: _1307  and  _1308
REMARK  398  A    between atoms: _1318  and  _1319
REMARK  399  A    between atoms: _1319  and  _1320
REMARK  400  A    between atoms: _1319  and  _1322
REMARK  401  A    between atoms: _1322  and  _1323
REMARK  402  A    between atoms: _1322  and  _1324
REMARK  403  A    between atoms: _1332  and  _1333
REMARK  404  A    between atoms: _1333  and  _1334
REMARK  405  A    between atoms: _1333  and  _1336
REMARK  406  A    between atoms: _1336  and  _1337
REMARK  407  A    between atoms: _1337  and  _1338
REMARK  408  A    between atoms: _1338  and  _1339
REMARK  409  A    between atoms: _1339  and  _1340
REMARK  410  A    between atoms: _1354  and  _1355
REMARK  411  A    between atoms: _1355  and  _1356
REMARK  412  A    between atoms: _1355  and  _1358
REMARK  413  A    between atoms: _1364  and  _1365
REMARK  414  A    between atoms: _1365  and  _1366
REMARK  415  A    between atoms: _1365  and  _1368
REMARK  416  A    between atoms: _1368  and  _1369
REMARK  417  A    between atoms: _1376  and  _1377
REMARK  418  A    between atoms: _1377  and  _1378
REMARK  419  A    between atoms: _1377  and  _1380
REMARK  420  A    between atoms: _1380  and  _1381
REMARK  421  A    between atoms: _1381  and  _1382
REMARK  422  A    between atoms: _1381  and  _1383
REMARK  423  A    between atoms: _1395  and  _1396
REMARK  424  A    between atoms: _1396  and  _1399
REMARK  425  A    between atoms: _1399  and  _1400
REMARK  426  A    between atoms: _1399  and  _1401
REMARK  427  A    between atoms: _1400  and  _1402
REMARK  428  A    between atoms: _1422  and  _1425
REMARK  429  A    between atoms: _1424  and  _1428
REMARK  430  A    between atoms: _1425  and  _1427
REMARK  431  A    between atoms: _1443  and  _1444
REMARK  432  A    between atoms: _1443  and  _1446
REMARK  433  A    between atoms: _1446  and  _1447
REMARK  434  A    between atoms: _1457  and  _1458
REMARK  435  A    between atoms: _1458  and  _1459
REMARK  436  A    between atoms: _1458  and  _1461
REMARK  437  A    between atoms: _1461  and  _1462
REMARK  438  A    between atoms: _1462  and  _1463
REMARK  439  A    between atoms: _1462  and  _1464
REMARK  440  A    between atoms: _1476  and  _1477
REMARK  441  A    between atoms: _1477  and  _1478
REMARK  442  A    between atoms: _1483  and  _1484
REMARK  443  A    between atoms: _1484  and  _1485
REMARK  444  A    between atoms: _1484  and  _1487
REMARK  445  A    between atoms: _1487  and  _1488
REMARK  446  A    between atoms: _1487  and  _1489
REMARK  447  A    between atoms: _1497  and  _1498
REMARK  448  A    between atoms: _1498  and  _1499
REMARK  449  A    between atoms: _1498  and  _1501
REMARK  450  A    between atoms: _1501  and  _1502
REMARK  451  A    between atoms: _1501  and  _1503
REMARK  452  A    between atoms: _1502  and  _1504
REMARK  453  A    between atoms: _1516  and  _1517
REMARK  454  A    between atoms: _1517  and  _1518
REMARK  455  A    between atoms: _1517  and  _1520
REMARK  456  A    between atoms: _1526  and  _1527
REMARK  457  A    between atoms: _1527  and  _1528
REMARK  458  A    between atoms: _1527  and  _1530
REMARK  459  A    between atoms: _1530  and  _1531
REMARK  460  A    between atoms: _1531  and  _1532
REMARK  461  A    between atoms: _1532  and  _1533
REMARK  462  A    between atoms: _1533  and  _1534
REMARK  463  A    between atoms: _1548  and  _1549
REMARK  464  A    between atoms: _1549  and  _1550
REMARK  465  A    between atoms: _1549  and  _1552
REMARK  466  A    between atoms: _1552  and  _1553
REMARK  467  A    between atoms: _1559  and  _1560
REMARK  468  A    between atoms: _1560  and  _1561
REMARK  469  A    between atoms: _1566  and  _1567
REMARK  470  A    between atoms: _1567  and  _1568
REMARK  471  A    between atoms: _1567  and  _1570
REMARK  472  A    between atoms: _1570  and  _1571
REMARK  473  A    between atoms: _1570  and  _1572
REMARK  474  A    between atoms: _1580  and  _1581
REMARK  475  A    between atoms: _1581  and  _1582
REMARK  476  A    between atoms: _1581  and  _1584
REMARK  477  A    between atoms: _1584  and  _1585
REMARK  478  A    between atoms: _1585  and  _1586
REMARK  479  A    between atoms: _1586  and  _1587
REMARK  480  A    between atoms: _1587  and  _1588
REMARK  481  A    between atoms: _1602  and  _1603
REMARK  482  A    between atoms: _1603  and  _1604
REMARK  483  A    between atoms: _1603  and  _1606
REMARK  484  A    between atoms: _1612  and  _1613
REMARK  485  A    between atoms: _1613  and  _1614
REMARK  486  A    between atoms: _1613  and  _1616
REMARK  487  A    between atoms: _1616  and  _1617
REMARK  488  A    between atoms: _1632  and  _1633
REMARK  489  A    between atoms: _1633  and  _1634
REMARK  490  A    between atoms: _1633  and  _1636
REMARK  491  A    between atoms: _1636  and  _1637
REMARK  492  A    between atoms: _1637  and  _1638
REMARK  493  A    between atoms: _1638  and  _1639
REMARK  494  A    between atoms: _1649  and  _1650
REMARK  495  A    between atoms: _1650  and  _1651
REMARK  496  A    between atoms: _1650  and  _1653
REMARK  497  A    between atoms: _1653  and  _1654
REMARK  498  A    between atoms: _1654  and  _1655
REMARK  499  A    between atoms: _1664  and  _1665
REMARK  500  A    between atoms: _1665  and  _1666
REMARK  501  A    between atoms: _1665  and  _1668
REMARK  502  A    between atoms: _1674  and  _1675
REMARK  503  A    between atoms: _1675  and  _1676
REMARK  504  A    between atoms: _1675  and  _1678
REMARK  505  A    between atoms: _1678  and  _1679
REMARK  506  A    between atoms: _1679  and  _1680
REMARK  507  A    between atoms: _1679  and  _1681
REMARK  508  A    between atoms: _1693  and  _1694
REMARK  509  A    between atoms: _1694  and  _1695
REMARK  510  A    between atoms: _1694  and  _1697
REMARK  511  A    between atoms: _1697  and  _1698
REMARK  512  A    between atoms: _1698  and  _1699
REMARK  513  A    between atoms: _1710  and  _1711
REMARK  514  A    between atoms: _1711  and  _1712
REMARK  515  A    between atoms: _1711  and  _1714
REMARK  516  A    between atoms: _1720  and  _1721
REMARK  517  A    between atoms: _1721  and  _1722
REMARK  518  A    between atoms: _1727  and  _1728
REMARK  519  A    between atoms: _1728  and  _1729
REMARK  520  A    between atoms: _1728  and  _1731
REMARK  521  A    between atoms: _1737  and  _1738
REMARK  522  A    between atoms: _1738  and  _1739
REMARK  523  A    between atoms: _1738  and  _1741
REMARK  524  A    between atoms: _1741  and  _1742
REMARK  525  A    between atoms: _1749  and  _1750
REMARK  526  A    between atoms: _1750  and  _1751
REMARK  527  A    between atoms: _1750  and  _1753
REMARK  528  A    between atoms: _1753  and  _1754
REMARK  529  A    between atoms: _1753  and  _1755
REMARK  530  A    between atoms: _1754  and  _1756
REMARK  531  A    between atoms: _1768  and  _1769
REMARK  532  A    between atoms: _1769  and  _1772
REMARK  533  A    between atoms: _1772  and  _1773
REMARK  534  A    between atoms: _1791  and  _1793
REMARK  535  A    between atoms: _1792  and  _1794
REMARK  536  A    between atoms: _1814  and  _1815
REMARK  537  A    between atoms: _1814  and  _1817
REMARK  538  A    between atoms: _1817  and  _1818
REMARK  539  A    between atoms: _1817  and  _1819
REMARK  540  A    between atoms: _1818  and  _1820
REMARK  541  A    between atoms: _1833  and  _1834
REMARK  542  A    between atoms: _1834  and  _1835
REMARK  543  A    between atoms: _1840  and  _1841
REMARK  544  A    between atoms: _1841  and  _1842
REMARK  545  A    between atoms: _1841  and  _1844
REMARK  546  A    between atoms: _1844  and  _1845
REMARK  547  A    between atoms: _1845  and  _1846
REMARK  548  A    between atoms: _1857  and  _1858
REMARK  549  A    between atoms: _1858  and  _1859
REMARK  550  A    between atoms: _1858  and  _1861
REMARK  551  A    between atoms: _1861  and  _1862
REMARK  552  A    between atoms: _1877  and  _1878
REMARK  553  A    between atoms: _1878  and  _1879
REMARK  554  A    between atoms: _1884  and  _1885
REMARK  555  A    between atoms: _1885  and  _1886
REMARK  556  A    between atoms: _1885  and  _1888
REMARK  557  A    between atoms: _1888  and  _1889
REMARK  558  A    between atoms: _1888  and  _1890
REMARK  559  A    between atoms: _1900  and  _1901
REMARK  560  A    between atoms: _1901  and  _1902
REMARK  561  A    between atoms: _1907  and  _1908
REMARK  562  A    between atoms: _1908  and  _1909
REMARK  563  A    between atoms: _1908  and  _1911
REMARK  564  A    between atoms: _1911  and  _1912
REMARK  565  A    between atoms: _1927  and  _1928
REMARK  566  A    between atoms: _1928  and  _1929
REMARK  567  A    between atoms: _1928  and  _1931
REMARK  568  A    between atoms: _1931  and  _1932
REMARK  569  A    between atoms: _1937  and  _1938
REMARK  570  A    between atoms: _1948  and  _1949
REMARK  571  A    between atoms: _1949  and  _1950
REMARK  572  A    between atoms: _1949  and  _1952
REMARK  573  A    between atoms: _1952  and  _1953
REMARK  574  A    between atoms: _1959  and  _1960
REMARK  575  A    between atoms: _1960  and  _1961
REMARK  576  A    between atoms: _1960  and  _1963
REMARK  577  A    between atoms: _1969  and  _1970
REMARK  578  A    between atoms: _1970  and  _1971
REMARK  579  A    between atoms: _1970  and  _1973
REMARK  580  A    between atoms: _1973  and  _1974
REMARK  581  A    between atoms: _1979  and  _1980
REMARK  582  A    between atoms: _1990  and  _1991
REMARK  583  A    between atoms: _1991  and  _1992
REMARK  584  A    between atoms: _1991  and  _1994
REMARK  585  A    between atoms: _1994  and  _1995
REMARK  586  A    between atoms: _1995  and  _1996
REMARK  587  A    between atoms: _1995  and  _1997
REMARK  588  A    between atoms: _2009  and  _2010
REMARK  589  A    between atoms: _2010  and  _2011
REMARK  590  A    between atoms: _2010  and  _2013
REMARK  591  A    between atoms: _2013  and  _2014
REMARK  592  A    between atoms: _2013  and  _2015
REMARK  593  A    between atoms: _2025  and  _2026
REMARK  594  A    between atoms: _2026  and  _2027
REMARK  595  A    between atoms: _2026  and  _2029
REMARK  596  A    between atoms: _2035  and  _2036
REMARK  597  A    between atoms: _2036  and  _2037
REMARK  598  A    between atoms: _2036  and  _2039
REMARK  599  A    between atoms: _2039  and  _2040
REMARK  600  A    between atoms: _2040  and  _2041
REMARK  601  A    between atoms: _2050  and  _2051
REMARK  602  A    between atoms: _2051  and  _2052
REMARK  603  A    between atoms: _2051  and  _2054
REMARK  604  A    between atoms: _2054  and  _2055
REMARK  605  A    between atoms: _2055  and  _2056
REMARK  606  A    between atoms: _2056  and  _2057
REMARK  607  A    between atoms: _2057  and  _2058
REMARK  608  A    between atoms: _2072  and  _2073
REMARK  609  A    between atoms: _2073  and  _2074
REMARK  610  A    between atoms: _2073  and  _2076
REMARK  611  A    between atoms: _2076  and  _2077
REMARK  612  A    between atoms: _2076  and  _2078
REMARK  613  A    between atoms: _2088  and  _2089
REMARK  614  A    between atoms: _2089  and  _2090
REMARK  615  A    between atoms: _2089  and  _2092
REMARK  616  A    between atoms: _2092  and  _2093
REMARK  617  A    between atoms: _2092  and  _2094
REMARK  618  A    between atoms: _2102  and  _2103
REMARK  619  A    between atoms: _2103  and  _2104
REMARK  620  A    between atoms: _2103  and  _2106
REMARK  621  A    between atoms: _2106  and  _2107
REMARK  622  A    between atoms: _2106  and  _2108
REMARK  623  A    between atoms: _2118  and  _2119
REMARK  624  A    between atoms: _2119  and  _2120
REMARK  625  A    between atoms: _2119  and  _2122
REMARK  626  A    between atoms: _2122  and  _2123
REMARK  627  A    between atoms: _2122  and  _2124
REMARK  628  A    between atoms: _2123  and  _2125
REMARK  629  A    between atoms: _2137  and  _2138
REMARK  630  A    between atoms: _2138  and  _2139
REMARK  631  A    between atoms: _2138  and  _2141
REMARK  632  A    between atoms: _2141  and  _2142
REMARK  633  A    between atoms: _2141  and  _2143
REMARK  634  A    between atoms: _2151  and  _2152
REMARK  635  A    between atoms: _2152  and  _2153
REMARK  636  A    between atoms: _2152  and  _2155
REMARK  637  A    between atoms: _2155  and  _2156
REMARK  638  A    between atoms: _2156  and  _2157
REMARK  639  A    between atoms: _2157  and  _2158
REMARK  640  A    between atoms: _2158  and  _2159
REMARK  641  A    between atoms: _2173  and  _2174
REMARK  642  A    between atoms: _2174  and  _2175
REMARK  643  A    between atoms: _2174  and  _2177
REMARK  644  A    between atoms: _2177  and  _2178
REMARK  645  A    between atoms: _2190  and  _2191
REMARK  646  A    between atoms: _2191  and  _2192
REMARK  647  A    between atoms: _2191  and  _2194
REMARK  648  A    between atoms: _2194  and  _2195
REMARK  649  A    between atoms: _2204  and  _2205
REMARK  650  A    between atoms: _2205  and  _2206
REMARK  651  A    between atoms: _2205  and  _2208
REMARK  652  A    between atoms: _2208  and  _2209
REMARK  653  A    between atoms: _2216  and  _2217
REMARK  654  A    between atoms: _2217  and  _2218
REMARK  655  A    between atoms: _2217  and  _2220
REMARK  656  A    between atoms: _2220  and  _2221
REMARK  657  A    between atoms: _2228  and  _2229
REMARK  658  A    between atoms: _2229  and  _2230
REMARK  659  A    between atoms: _2229  and  _2232
REMARK  660  A    between atoms: _2232  and  _2233
REMARK  661  A    between atoms: _2233  and  _2234
REMARK  662  A    between atoms: _2243  and  _2244
REMARK  663  A    between atoms: _2244  and  _2245
REMARK  664  A    between atoms: _2244  and  _2247
REMARK  665  A    between atoms: _2247  and  _2248
REMARK  666  A    between atoms: _2248  and  _2249
REMARK  667  A    between atoms: _2260  and  _2261
REMARK  668  A    between atoms: _2261  and  _2262
REMARK  669  A    between atoms: _2261  and  _2264
REMARK  670  A    between atoms: _2264  and  _2265
REMARK  671  A    between atoms: _2270  and  _2271
REMARK  672  A    between atoms: _2281  and  _2282
REMARK  673  A    between atoms: _2282  and  _2283
REMARK  674  A    between atoms: _2282  and  _2285
REMARK  675  A    between atoms: _2291  and  _2292
REMARK  676  A    between atoms: _2292  and  _2293
REMARK  677  A    between atoms: _2292  and  _2295
REMARK  678  A    between atoms: _2295  and  _2296
REMARK  679  A    between atoms: _2315  and  _2316
REMARK  680  A    between atoms: _2316  and  _2317
REMARK  681  A    between atoms: _2316  and  _2319
REMARK  682  A    between atoms: _2319  and  _2320
REMARK  683  A    between atoms: _2320  and  _2321
REMARK  684  A    between atoms: _2330  and  _2331
REMARK  685  A    between atoms: _2331  and  _2332
REMARK  686  A    between atoms: _2331  and  _2334
REMARK  687  A    between atoms: _2334  and  _2335
REMARK  688  A    between atoms: _2341  and  _2342
REMARK  689  A    between atoms: _2342  and  _2343
REMARK  690  A    between atoms: _2342  and  _2345
REMARK  691  A    between atoms: _2345  and  _2346
REMARK  692  A    between atoms: _2352  and  _2353
REMARK  693  A    between atoms: _2353  and  _2354
REMARK  694  A    between atoms: _2353  and  _2356
REMARK  695  A    between atoms: _2362  and  _2363
REMARK  696  A    between atoms: _2363  and  _2364
REMARK  697  A    between atoms: _2369  and  _2370
REMARK  698  A    between atoms: _2370  and  _2371
REMARK  699  A    between atoms: _2376  and  _2377
REMARK  700  A    between atoms: _2377  and  _2378
REMARK  701  A    between atoms: _2377  and  _2380
REMARK  702  A    between atoms: _2380  and  _2381
REMARK  703  A    between atoms: _2387  and  _2388
REMARK  704  A    between atoms: _2388  and  _2389
REMARK  705  A    between atoms: _2388  and  _2391
REMARK  706  A    between atoms: _2391  and  _2392
REMARK  707  A    between atoms: _2407  and  _2408
REMARK  708  A    between atoms: _2408  and  _2409
REMARK  709  A    between atoms: _2408  and  _2411
REMARK  710  A    between atoms: _2411  and  _2412
REMARK  711  A    between atoms: _2411  and  _2413
REMARK  712  A    between atoms: _2421  and  _2422
REMARK  713  A    between atoms: _2422  and  _2423
REMARK  714  A    between atoms: _2422  and  _2425
REMARK  715  A    between atoms: _2425  and  _2426
REMARK  716  A    between atoms: _2425  and  _2427
REMARK  717  A    between atoms: _2437  and  _2438
REMARK  718  A    between atoms: _2438  and  _2439
REMARK  719  A    between atoms: _2438  and  _2441
REMARK  720  A    between atoms: _2441  and  _2442
REMARK  721  A    between atoms: _2442  and  _2443
REMARK  722  A    between atoms: _2443  and  _2444
REMARK  723  A    between atoms: _2461  and  _2462
REMARK  724  A    between atoms: _2462  and  _2463
REMARK  725  A    between atoms: _2462  and  _2465
REMARK  726  A    between atoms: _2465  and  _2466
REMARK  727  A    between atoms: _2465  and  _2467
REMARK  728  A    between atoms: _2475  and  _2476
REMARK  729  A    between atoms: _2476  and  _2477
REMARK  730  A    between atoms: _2476  and  _2479
REMARK  731  A    between atoms: _2479  and  _2480
REMARK  732  A    between atoms: _2487  and  _2488
REMARK  733  A    between atoms: _2488  and  _2489
REMARK  734  A    between atoms: _2488  and  _2491
REMARK  735  A    between atoms: _2491  and  _2492
REMARK  736  A    between atoms: _2491  and  _2493
REMARK  737  A    between atoms: _2501  and  _2502
REMARK  738  A    between atoms: _2502  and  _2503
REMARK  739  A    between atoms: _2508  and  _2509
REMARK  740  A    between atoms: _2509  and  _2510
REMARK  741  A    between atoms: _2509  and  _2512
REMARK  742  A    between atoms: _2512  and  _2513
REMARK  743  A    between atoms: _2513  and  _2514
REMARK  744  A    between atoms: _2524  and  _2525
REMARK  745  A    between atoms: _2537  and  _2538
REMARK  746  A    between atoms: _2538  and  _2539
REMARK  747  A    between atoms: _2538  and  _2541
REMARK  748  A    between atoms: _2541  and  _2542
REMARK  749  A    between atoms: _2542  and  _2543
REMARK  750  A    between atoms: _2543  and  _2544
REMARK  751  A    between atoms: _2554  and  _2555
REMARK  752  A    between atoms: _2555  and  _2556
REMARK  753  A    between atoms: _2561  and  _2562
REMARK  754  A    between atoms: _2562  and  _2563
REMARK  755  A    between atoms: _2562  and  _2565
REMARK  756  A    between atoms: _2565  and  _2566
REMARK  757  A    between atoms: _2566  and  _2567
REMARK  758  A    between atoms: _2567  and  _2568
REMARK  759  A    between atoms: _2585  and  _2586
REMARK  760  A    between atoms: _2586  and  _2587
REMARK  761  A    between atoms: _2592  and  _2593
REMARK  762  A    between atoms: _2593  and  _2594
REMARK  763  A    between atoms: _2593  and  _2596
REMARK  764  A    between atoms: _2596  and  _2597
REMARK  765  A    between atoms: _2596  and  _2598
REMARK  766  A    between atoms: _2606  and  _2607
REMARK  767  A    between atoms: _2607  and  _2608
REMARK  768  A    between atoms: _2607  and  _2610
REMARK  769  A    between atoms: _2610  and  _2611
REMARK  770  A    between atoms: _2611  and  _2612
REMARK  771  A    between atoms: _2612  and  _2613
REMARK  772  A    between atoms: _2613  and  _2614
REMARK  773  A    between atoms: _2628  and  _2629
REMARK  774  A    between atoms: _2629  and  _2630
REMARK  775  A    between atoms: _2629  and  _2632
REMARK  776  A    between atoms: _2632  and  _2633
REMARK  777  A    between atoms: _2632  and  _2634
REMARK  778  A    between atoms: _2644  and  _2645
REMARK  779  A    between atoms: _2645  and  _2646
REMARK  780  A    between atoms: _2645  and  _2648
REMARK  781  A    between atoms: _2648  and  _2649
REMARK  782  A    between atoms: _2648  and  _2650
REMARK  783  A    between atoms: _2649  and  _2651
REMARK  784  A    between atoms: _2663  and  _2664
REMARK  785  A    between atoms: _2664  and  _2665
REMARK  786  A    between atoms: _2664  and  _2667
REMARK  787  A    between atoms: _2667  and  _2668
REMARK  788  A    between atoms: _2668  and  _2669
REMARK  789  A    between atoms: _2668  and  _2670
REMARK  790  A    between atoms: _2682  and  _2683
REMARK  791  A    between atoms: _2683  and  _2684
REMARK  792  A    between atoms: _2683  and  _2686
REMARK  793  A    between atoms: _2686  and  _2687
REMARK  794  A    between atoms: _2699  and  _2700
REMARK  795  A    between atoms: _2700  and  _2701
REMARK  796  A    between atoms: _2700  and  _2703
REMARK  797  A    between atoms: _2703  and  _2704
REMARK  798  A    between atoms: _2704  and  _2705
REMARK  799  A    between atoms: _2704  and  _2706
REMARK  800  A    between atoms: _2718  and  _2719
REMARK  801  A    between atoms: _2719  and  _2720
REMARK  802  A    between atoms: _2719  and  _2722
REMARK  803  A    between atoms: _2722  and  _2723
REMARK  804  A    between atoms: _2723  and  _2724
REMARK  805  A    between atoms: _2724  and  _2725
REMARK  806  A    between atoms: _2725  and  _2726
REMARK  807  A    between atoms: _2740  and  _2741
REMARK  808  A    between atoms: _2741  and  _2742
REMARK  809  A    between atoms: _2741  and  _2744
REMARK  810  A    between atoms: _2744  and  _2745
REMARK  811  A    between atoms: _2745  and  _2746
REMARK  812  A    between atoms: _2755  and  _2756
REMARK  813  A    between atoms: _2756  and  _2757
REMARK  814  A    between atoms: _2756  and  _2759
REMARK  815  A    between atoms: _2759  and  _2760
REMARK  816  A    between atoms: _2767  and  _2768
REMARK  817  A    between atoms: _2768  and  _2769
REMARK  818  A    between atoms: _2768  and  _2771
REMARK  819  A    between atoms: _2771  and  _2772
REMARK  820  A    between atoms: _2772  and  _2773
REMARK  821  A    between atoms: _2784  and  _2785
REMARK  822  A    between atoms: _2785  and  _2786
REMARK  823  A    between atoms: _2785  and  _2788
REMARK  824  A    between atoms: _2788  and  _2789
REMARK  825  A    between atoms: _2788  and  _2790
REMARK  826  A    between atoms: _2798  and  _2799
REMARK  827  A    between atoms: _2799  and  _2800
REMARK  828  A    between atoms: _2799  and  _2802
REMARK  829  A    between atoms: _2802  and  _2803
REMARK  830  A    between atoms: _2803  and  _2804
REMARK  831  A    between atoms: _2813  and  _2814
REMARK  832  A    between atoms: _2814  and  _2815
REMARK  833  A    between atoms: _2814  and  _2817
REMARK  834  A    between atoms: _2817  and  _2818
REMARK  835  A    between atoms: _2823  and  _2824
REMARK  836  A    between atoms: _2834  and  _2835
REMARK  837  A    between atoms: _2835  and  _2838
REMARK  838  A    between atoms: _2838  and  _2839
REMARK  839  A    between atoms: _2839  and  _2840
REMARK  840  A    between atoms: _2839  and  _2841
REMARK  841  A    between atoms: _2884  and  _2885
REMARK  842  A    between atoms: _2884  and  _2887
REMARK  843  A    between atoms: _2887  and  _2888
REMARK  844  A    between atoms: _2888  and  _2889
REMARK  845  A    between atoms: _2899  and  _2900
REMARK  846  A    between atoms: _2900  and  _2901
REMARK  847  A    between atoms: _2900  and  _2903
REMARK  848  A    between atoms: _2903  and  _2904
REMARK  849  A    between atoms: _2904  and  _2905
REMARK  850  A    between atoms: _2905  and  _2906
REMARK  851  A    between atoms: _2923  and  _2924
REMARK  852  A    between atoms: _2924  and  _2925
REMARK  853  A    between atoms: _2924  and  _2927
REMARK  854  A    between atoms: _2927  and  _2928
REMARK  855  A    between atoms: _2928  and  _2929
REMARK  856  A    between atoms: _2929  and  _2930
REMARK  857  A    between atoms: _2947  and  _2948
REMARK  858  A    between atoms: _2948  and  _2949
REMARK  859  A    between atoms: _2948  and  _2951
REMARK  860  A    between atoms: _2951  and  _2952
REMARK  861  A    between atoms: _2951  and  _2953
REMARK  862  A    between atoms: _2952  and  _2954
REMARK  863  A    between atoms: _2966  and  _2967
REMARK  864  A    between atoms: _2967  and  _2968
REMARK  865  A    between atoms: _2967  and  _2970
REMARK  866  A    between atoms: _2970  and  _2971
REMARK  867  A    between atoms: _2971  and  _2972
REMARK  868  A    between atoms: _2972  and  _2973
REMARK  869  A    between atoms: _2973  and  _2974
REMARK  870  A    between atoms: _2988  and  _2989
REMARK  871  A    between atoms: _2989  and  _2990
REMARK  872  A    between atoms: _2989  and  _2992
REMARK  873  A    between atoms: _2992  and  _2993
REMARK  874  A    between atoms: _2993  and  _2994
REMARK  875  A    between atoms: _3003  and  _3004
REMARK  876  A    between atoms: _3004  and  _3005
REMARK  877  A    between atoms: _3004  and  _3007
REMARK  878  A    between atoms: _3007  and  _3008
REMARK  879  A    between atoms: _3007  and  _3009
REMARK  880  A    between atoms: _3008  and  _3010
REMARK  881  A    between atoms: _3022  and  _3023
REMARK  882  A    between atoms: _3023  and  _3024
REMARK  883  A    between atoms: _3023  and  _3026
REMARK  884  A    between atoms: _3026  and  _3027
REMARK  885  A    between atoms: _3026  and  _3028
REMARK  886  A    between atoms: _3038  and  _3039
REMARK  887  A    between atoms: _3039  and  _3040
REMARK  888  A    between atoms: _3039  and  _3042
REMARK  889  A    between atoms: _3042  and  _3043
REMARK  890  A    between atoms: _3043  and  _3044
REMARK  891  A    between atoms: _3044  and  _3045
REMARK  892  A    between atoms: _3045  and  _3046
REMARK  893  A    between atoms: _3060  and  _3061
REMARK  894  A    between atoms: _3061  and  _3062
REMARK  895  A    between atoms: _3061  and  _3064
REMARK  896  A    between atoms: _3064  and  _3065
REMARK  897  A    between atoms: _3065  and  _3066
REMARK  898  A    between atoms: _3066  and  _3067
REMARK  899  A    between atoms: _3067  and  _3068
REMARK  900  A    between atoms: _3082  and  _3083
REMARK  901  A    between atoms: _3083  and  _3084
REMARK  902  A    between atoms: _3083  and  _3086
REMARK  903  A    between atoms: _3086  and  _3087
REMARK  904  A    between atoms: _3099  and  _3100
REMARK  905  A    between atoms: _3100  and  _3101
REMARK  906  A    between atoms: _3100  and  _3103
REMARK  907  A    between atoms: _3103  and  _3104
REMARK  908  A    between atoms: _3110  and  _3111
REMARK  909  A    between atoms: _3111  and  _3112
REMARK  910  A    between atoms: _3111  and  _3114
REMARK  911  A    between atoms: _3114  and  _3115
REMARK  912  A    between atoms: _3115  and  _3116
REMARK  913  A    between atoms: _3127  and  _3128
REMARK  914  A    between atoms: _3128  and  _3129
REMARK  915  A    between atoms: _3128  and  _3131
REMARK  916  A    between atoms: _3131  and  _3132
REMARK  917  A    between atoms: _3147  and  _3148
REMARK  918  A    between atoms: _3148  and  _3149
REMARK  919  A    between atoms: _3148  and  _3151
REMARK  920  A    between atoms: _3151  and  _3152
REMARK  921  A    between atoms: _3151  and  _3153
REMARK  922  A    between atoms: _3152  and  _3154
REMARK  923  A    between atoms: _3166  and  _3167
REMARK  924  A    between atoms: _3167  and  _3168
REMARK  925  A    between atoms: _3173  and  _3174
REMARK  926  A    between atoms: _3174  and  _3175
REMARK  927  A    between atoms: _3174  and  _3177
REMARK  928  A    between atoms: _3177  and  _3178
REMARK  929  A    between atoms: _3183  and  _3184
REMARK  930  A    between atoms: _3195  and  _3196
REMARK  931  A    between atoms: _3208  and  _3209
REMARK  932  A    between atoms: _3209  and  _3210
REMARK  933  A    between atoms: _3209  and  _3212
REMARK  934  A    between atoms: _3212  and  _3213
REMARK  935  A    between atoms: _3212  and  _3214
REMARK  936  A    between atoms: _3213  and  _3215
REMARK  937  A    between atoms: _3227  and  _3228
REMARK  938  A    between atoms: _3228  and  _3229
REMARK  939  A    between atoms: _3228  and  _3231
REMARK  940  A    between atoms: _3231  and  _3232
REMARK  941  A    between atoms: _3231  and  _3233
REMARK  942  A    between atoms: _3241  and  _3242
REMARK  943  A    between atoms: _3242  and  _3243
REMARK  944  A    between atoms: _3242  and  _3245
REMARK  945  A    between atoms: _3245  and  _3246
REMARK  946  A    between atoms: _3246  and  _3247
REMARK  947  A    between atoms: _3246  and  _3248
REMARK  948  A    between atoms: _3260  and  _3261
REMARK  949  A    between atoms: _3261  and  _3262
REMARK  950  A    between atoms: _3261  and  _3264
REMARK  951  A    between atoms: _3264  and  _3265
REMARK  952  A    between atoms: _3280  and  _3281
REMARK  953  A    between atoms: _3281  and  _3282
REMARK  954  A    between atoms: _3281  and  _3284
REMARK  955  A    between atoms: _3284  and  _3285
REMARK  956  A    between atoms: _3284  and  _3286
REMARK  957  A    between atoms: _3296  and  _3297
REMARK  958  A    between atoms: _3297  and  _3298
REMARK  959  A    between atoms: _3297  and  _3300
REMARK  960  A    between atoms: _3300  and  _3301
REMARK  961  A    between atoms: _3301  and  _3302
REMARK                            x       y       z     vdW  Elec       q    Type
REMARK                         _______ _______ _______ _____ _____    ______ ____
ROOT
ATOM      1  C   UNL     1      -9.259  19.949  42.626  0.00  0.00    +0.000 C 
ENDROOT
TORSDOF 0
REMARK  Name = /Users/mlugowska/PhD/ML_residence_time_prediction/protein_files/5J20_protein.pdb
REMARK  961 active torsions:
REMARK  status: ('A' for Active; 'I' for Inactive)
REMARK    1  A    between atoms: _2  and  _3
REMARK    2  A    between atoms: _2  and  _5
REMARK    3  A    between atoms: _10  and  _11
REMARK    4  A    between atoms: _11  and  _12
REMARK    5  A    between atoms: _11  and  _14
REMARK    6  A    between atoms: _14  and  _15
REMARK    7  A    between atoms: _14  and  _16
REMARK    8  A    between atoms: _26  and  _27
REMARK    9  A    between atoms: _27  and  _28
REMARK   10  A    between atoms: _27  and  _30
REMARK   11  A    between atoms: _30  and  _31
REMARK   12  A    between atoms: _31  and  _32
REMARK   13  A    between atoms: _41  and  _42
REMARK   14  A    between atoms: _42  and  _43
REMARK   15  A    between atoms: _42  and  _45
REMARK   16  A    between atoms: _45  and  _46
REMARK   17  A    between atoms: _45  and  _47
REMARK   18  A    between atoms: _55  and  _56
REMARK   19  A    between atoms: _56  and  _57
REMARK   20  A    between atoms: _56  and  _59
REMARK   21  A    between atoms: _59  and  _60
REMARK   22  A    between atoms: _75  and  _76
REMARK   23  A    between atoms: _76  and  _77
REMARK   24  A    between atoms: _76  and  _79
REMARK   25  A    between atoms: _85  and  _86
REMARK   26  A    between atoms: _86  and  _87
REMARK   27  A    between atoms: _86  and  _89
REMARK   28  A    between atoms: _89  and  _90
REMARK   29  A    between atoms: _105  and  _106
REMARK   30  A    between atoms: _106  and  _107
REMARK   31  A    between atoms: _106  and  _109
REMARK   32  A    between atoms: _109  and  _110
REMARK   33  A    between atoms: _110  and  _111
REMARK   34  A    between atoms: _122  and  _123
REMARK   35  A    between atoms: _123  and  _124
REMARK   36  A    between atoms: _123  and  _126
REMARK   37  A    between atoms: _132  and  _133
REMARK   38  A    between atoms: _133  and  _134
REMARK   39  A    between atoms: _133  and  _136
REMARK   40  A    between atoms: _136  and  _137
REMARK   41  A    between atoms: _137  and  _138
REMARK   42  A    between atoms: _147  and  _148
REMARK   43  A    between atoms: _148  and  _149
REMARK   44  A    between atoms: _148  and  _151
REMARK   45  A    between atoms: _151  and  _152
REMARK   46  A    between atoms: _151  and  _153
REMARK   47  A    between atoms: _152  and  _154
REMARK   48  A    between atoms: _166  and  _167
REMARK   49  A    between atoms: _167  and  _168
REMARK   50  A    between atoms: _167  and  _170
REMARK   51  A    between atoms: _176  and  _177
REMARK   52  A    between atoms: _177  and  _178
REMARK   53  A    between atoms: _177  and  _180
REMARK   54  A    between atoms: _180  and  _181
REMARK   55  A    between atoms: _181  and  _182
REMARK   56  A    between atoms: _193  and  _194
REMARK   57  A    between atoms: _194  and  _195
REMARK   58  A    between atoms: _194  and  _197
REMARK   59  A    between atoms: _197  and  _198
REMARK   60  A    between atoms: _198  and  _199
REMARK   61  A    between atoms: _198  and  _200
REMARK   62  A    between atoms: _212  and  _213
REMARK   63  A    between atoms: _213  and  _214
REMARK   64  A    between atoms: _213  and  _216
REMARK   65  A    between atoms: _216  and  _217
REMARK   66  A    between atoms: _217  and  _218
REMARK   67  A    between atoms: _218  and  _219
REMARK   68  A    between atoms: _229  and  _230
REMARK   69  A    between atoms: _230  and  _231
REMARK   70  A    between atoms: _230  and  _233
REMARK   71  A    between atoms: _233  and  _234
REMARK   72  A    between atoms: _240  and  _241
REMARK   73  A    between atoms: _241  and  _242
REMARK   74  A    between atoms: _241  and  _244
REMARK   75  A    between atoms: _244  and  _245
REMARK   76  A    between atoms: _245  and  _246
REMARK   77  A    between atoms: _245  and  _247
REMARK   78  A    between atoms: _259  and  _260
REMARK   79  A    between atoms: _260  and  _261
REMARK   80  A    between atoms: _260  and  _263
REMARK   81  A    between atoms: _263  and  _264
REMARK   82  A    between atoms: _263  and  _265
REMARK   83  A    between atoms: _264  and  _266
REMARK   84  A    between atoms: _278  and  _279
REMARK   85  A    between atoms: _279  and  _280
REMARK   86  A    between atoms: _279  and  _282
REMARK   87  A    between atoms: _282  and  _283
REMARK   88  A    between atoms: _282  and  _284
REMARK   89  A    between atoms: _283  and  _285
REMARK   90  A    between atoms: _297  and  _298
REMARK   91  A    between atoms: _298  and  _299
REMARK   92  A    between atoms: _298  and  _301
REMARK   93  A    between atoms: _301  and  _302
REMARK   94  A    between atoms: _311  and  _312
REMARK   95  A    between atoms: _312  and  _313
REMARK   96  A    between atoms: _312  and  _315
REMARK   97  A    between atoms: _315  and  _316
REMARK   98  A    between atoms: _315  and  _317
REMARK   99  A    between atoms: _325  and  _326
REMARK  100  A    between atoms: _326  and  _327
REMARK  101  A    between atoms: _326  and  _329
REMARK  102  A    between atoms: _329  and  _330
REMARK  103  A    between atoms: _345  and  _346
REMARK  104  A    between atoms: _346  and  _347
REMARK  105  A    between atoms: _346  and  _349
REMARK  106  A    between atoms: _349  and  _350
REMARK  107  A    between atoms: _355  and  _356
REMARK  108  A    between atoms: _366  and  _367
REMARK  109  A    between atoms: _367  and  _368
REMARK  110  A    between atoms: _367  and  _370
REMARK  111  A    between atoms: _370  and  _371
REMARK  112  A    between atoms: _377  and  _378
REMARK  113  A    between atoms: _378  and  _379
REMARK  114  A    between atoms: _378  and  _381
REMARK  115  A    between atoms: _381  and  _382
REMARK  116  A    between atoms: _391  and  _392
REMARK  117  A    between atoms: _392  and  _393
REMARK  118  A    between atoms: _392  and  _395
REMARK  119  A    between atoms: _395  and  _396
REMARK  120  A    between atoms: _396  and  _397
REMARK  121  A    between atoms: _397  and  _398
REMARK  122  A    between atoms: _398  and  _399
REMARK  123  A    between atoms: _413  and  _414
REMARK  124  A    between atoms: _414  and  _415
REMARK  125  A    between atoms: _414  and  _417
REMARK  126  A    between atoms: _417  and  _418
REMARK  127  A    between atoms: _418  and  _419
REMARK  128  A    between atoms: _428  and  _429
REMARK  129  A    between atoms: _429  and  _430
REMARK  130  A    between atoms: _429  and  _432
REMARK  131  A    between atoms: _432  and  _433
REMARK  132  A    between atoms: _432  and  _434
REMARK  133  A    between atoms: _433  and  _435
REMARK  134  A    between atoms: _447  and  _448
REMARK  135  A    between atoms: _448  and  _449
REMARK  136  A    between atoms: _448  and  _451
REMARK  137  A    between atoms: _451  and  _452
REMARK  138  A    between atoms: _467  and  _468
REMARK  139  A    between atoms: _468  and  _469
REMARK  140  A    between atoms: _468  and  _471
REMARK  141  A    between atoms: _471  and  _472
REMARK  142  A    between atoms: _472  and  _473
REMARK  143  A    between atoms: _472  and  _474
REMARK  144  A    between atoms: _486  and  _487
REMARK  145  A    between atoms: _487  and  _488
REMARK  146  A    between atoms: _487  and  _490
REMARK  147  A    between atoms: _490  and  _491
REMARK  148  A    between atoms: _491  and  _492
REMARK  149  A    between atoms: _492  and  _493
REMARK  150  A    between atoms: _510  and  _511
REMARK  151  A    between atoms: _511  and  _512
REMARK  152  A    between atoms: _511  and  _514
REMARK  153  A    between atoms: _514  and  _515
REMARK  154  A    between atoms: _515  and  _516
REMARK  155  A    between atoms: _525  and  _526
REMARK  156  A    between atoms: _526  and  _527
REMARK  157  A    between atoms: _526  and  _529
REMARK  158  A    between atoms: _529  and  _530
REMARK  159  A    between atoms: _530  and  _531
REMARK  160  A    between atoms: _530  and  _532
REMARK  161  A    between atoms: _544  and  _545
REMARK  162  A    between atoms: _545  and  _546
REMARK  163  A    between atoms: _545  and  _548
REMARK  164  A    between atoms: _548  and  _549
REMARK  165  A    between atoms: _548  and  _550
REMARK  166  A    between atoms: _549  and  _551
REMARK  167  A    between atoms: _563  and  _564
REMARK  168  A    between atoms: _564  and  _565
REMARK  169  A    between atoms: _564  and  _567
REMARK  170  A    between atoms: _567  and  _568
REMARK  171  A    between atoms: _574  and  _575
REMARK  172  A    between atoms: _575  and  _576
REMARK  173  A    between atoms: _575  and  _578
REMARK  174  A    between atoms: _578  and  _579
REMARK  175  A    between atoms: _588  and  _589
REMARK  176  A    between atoms: _589  and  _590
REMARK  177  A    between atoms: _589  and  _592
REMARK  178  A    between atoms: _592  and  _593
REMARK  179  A    between atoms: _599  and  _600
REMARK  180  A    between atoms: _600  and  _601
REMARK  181  A    between atoms: _600  and  _603
REMARK  182  A    between atoms: _603  and  _604
REMARK  183  A    between atoms: _610  and  _611
REMARK  184  A    between atoms: _611  and  _612
REMARK  185  A    between atoms: _611  and  _614
REMARK  186  A    between atoms: _614  and  _615
REMARK  187  A    between atoms: _622  and  _623
REMARK  188  A    between atoms: _623  and  _624
REMARK  189  A    between atoms: _623  and  _626
REMARK  190  A    between atoms: _632  and  _633
REMARK  191  A    between atoms: _633  and  _634
REMARK  192  A    between atoms: _633  and  _636
REMARK  193  A    between atoms: _636  and  _637
REMARK  194  A    between atoms: _637  and  _638
REMARK  195  A    between atoms: _637  and  _639
REMARK  196  A    between atoms: _651  and  _652
REMARK  197  A    between atoms: _652  and  _653
REMARK  198  A    between atoms: _652  and  _655
REMARK  199  A    between atoms: _655  and  _656
REMARK  200  A    between atoms: _663  and  _664
REMARK  201  A    between atoms: _664  and  _665
REMARK  202  A    between atoms: _664  and  _667
REMARK  203  A    between atoms: _667  and  _668
REMARK  204  A    between atoms: _668  and  _669
REMARK  205  A    between atoms: _669  and  _670
REMARK  206  A    between atoms: _670  and  _671
REMARK  207  A    between atoms: _685  and  _686
REMARK  208  A    between atoms: _686  and  _687
REMARK  209  A    between atoms: _686  and  _689
REMARK  210  A    between atoms: _689  and  _690
REMARK  211  A    between atoms: _689  and  _691
REMARK  212  A    between atoms: _690  and  _692
REMARK  213  A    between atoms: _704  and  _705
REMARK  214  A    between atoms: _705  and  _706
REMARK  215  A    between atoms: _705  and  _708
REMARK  216  A    between atoms: _708  and  _709
REMARK  217  A    between atoms: _709  and  _710
REMARK  218  A    between atoms: _710  and  _711
REMARK  219  A    between atoms: _728  and  _729
REMARK  220  A    between atoms: _729  and  _730
REMARK  221  A    between atoms: _729  and  _732
REMARK  222  A    between atoms: _732  and  _733
REMARK  223  A    between atoms: _738  and  _739
REMARK  224  A    between atoms: _749  and  _750
REMARK  225  A    between atoms: _750  and  _751
REMARK  226  A    between atoms: _750  and  _753
REMARK  227  A    between atoms: _753  and  _754
REMARK  228  A    between atoms: _754  and  _755
REMARK  229  A    between atoms: _764  and  _765
REMARK  230  A    between atoms: _765  and  _766
REMARK  231  A    between atoms: _765  and  _768
REMARK  232  A    between atoms: _772  and  _773
REMARK  233  A    between atoms: _773  and  _774
REMARK  234  A    between atoms: _773  and  _776
REMARK  235  A    between atoms: _776  and  _777
REMARK  236  A    between atoms: _777  and  _778
REMARK  237  A    between atoms: _777  and  _779
REMARK  238  A    between atoms: _791  and  _792
REMARK  239  A    between atoms: _792  and  _793
REMARK  240  A    between atoms: _792  and  _795
REMARK  241  A    between atoms: _795  and  _796
REMARK  242  A    between atoms: _795  and  _797
REMARK  243  A    between atoms: _805  and  _806
REMARK  244  A    between atoms: _806  and  _807
REMARK  245  A    between atoms: _806  and  _809
REMARK  246  A    between atoms: _809  and  _810
REMARK  247  A    between atoms: _818  and  _819
REMARK  248  A    between atoms: _831  and  _832
REMARK  249  A    between atoms: _832  and  _833
REMARK  250  A    between atoms: _832  and  _835
REMARK  251  A    between atoms: _835  and  _836
REMARK  252  A    between atoms: _842  and  _843
REMARK  253  A    between atoms: _843  and  _844
REMARK  254  A    between atoms: _843  and  _846
REMARK  255  A    between atoms: _846  and  _847
REMARK  256  A    between atoms: _847  and  _848
REMARK  257  A    between atoms: _848  and  _849
REMARK  258  A    between atoms: _849  and  _850
REMARK  259  A    between atoms: _864  and  _865
REMARK  260  A    between atoms: _865  and  _866
REMARK  261  A    between atoms: _865  and  _868
REMARK  262  A    between atoms: _868  and  _869
REMARK  263  A    between atoms: _869  and  _870
REMARK  264  A    between atoms: _869  and  _871
REMARK  265  A    between atoms: _883  and  _884
REMARK  266  A    between atoms: _884  and  _885
REMARK  267  A    between atoms: _884  and  _887
REMARK  268  A    between atoms: _887  and  _888
REMARK  269  A    between atoms: _895  and  _896
REMARK  270  A    between atoms: _896  and  _897
REMARK  271  A    between atoms: _896  and  _899
REMARK  272  A    between atoms: _899  and  _900
REMARK  273  A    between atoms: _906  and  _907
REMARK  274  A    between atoms: _907  and  _908
REMARK  275  A    between atoms: _913  and  _914
REMARK  276  A    between atoms: _914  and  _915
REMARK  277  A    between atoms: _914  and  _917
REMARK  278  A    between atoms: _917  and  _918
REMARK  279  A    between atoms: _918  and  _919
REMARK  280  A    between atoms: _919  and  _920
REMARK  281  A    between atoms: _920  and  _921
REMARK  282  A    between atoms: _935  and  _936
REMARK  283  A    between atoms: _936  and  _937
REMARK  284  A    between atoms: _936  and  _939
REMARK  285  A    between atoms: _939  and  _940
REMARK  286  A    between atoms: _940  and  _941
REMARK  287  A    between atoms: _950  and  _951
REMARK  288  A    between atoms: _951  and  _952
REMARK  289  A    between atoms: _951  and  _954
REMARK  290  A    between atoms: _954  and  _955
REMARK  291  A    between atoms: _955  and  _956
REMARK  292  A    between atoms: _955  and  _957
REMARK  293  A    between atoms: _969  and  _970
REMARK  294  A    between atoms: _970  and  _971
REMARK  295  A    between atoms: _970  and  _973
REMARK  296  A    between atoms: _973  and  _974
REMARK  297  A    between atoms: _986  and  _987
REMARK  298  A    between atoms: _987  and  _988
REMARK  299  A    between atoms: _987  and  _990
REMARK  300  A    between atoms: _990  and  _991
REMARK  301  A    between atoms: _990  and  _992
REMARK  302  A    between atoms: _991  and  _993
REMARK  303  A    between atoms: _1005  and  _1006
REMARK  304  A    between atoms: _1006  and  _1007
REMARK  305  A    between atoms: _1006  and  _1009
REMARK  306  A    between atoms: _1009  and  _1010
REMARK  307  A    between atoms: _1019  and  _1020
REMARK  308  A    between atoms: _1020  and  _1021
REMARK  309  A    between atoms: _1020  and  _1023
REMARK  310  A    between atoms: _1023  and  _1024
REMARK  311  A    between atoms: _1024  and  _1025
REMARK  312  A    between atoms: _1024  and  _1026
REMARK  313  A    between atoms: _1038  and  _1039
REMARK  314  A    between atoms: _1039  and  _1040
REMARK  315  A    between atoms: _1039  and  _1042
REMARK  316  A    between atoms: _1042  and  _1043
REMARK  317  A    between atoms: _1042  and  _1044
REMARK  318  A    between atoms: _1043  and  _1045
REMARK  319  A    between atoms: _1058  and  _1059
REMARK  320  A    between atoms: _1071  and  _1072
REMARK  321  A    between atoms: _1072  and  _1073
REMARK  322  A    between atoms: _1072  and  _1075
REMARK  323  A    between atoms: _1075  and  _1076
REMARK  324  A    between atoms: _1085  and  _1086
REMARK  325  A    between atoms: _1086  and  _1087
REMARK  326  A    between atoms: _1086  and  _1089
REMARK  327  A    between atoms: _1089  and  _1090
REMARK  328  A    between atoms: _1090  and  _1091
REMARK  329  A    between atoms: _1091  and  _1092
REMARK  330  A    between atoms: _1092  and  _1093
REMARK  331  A    between atoms: _1107  and  _1108
REMARK  332  A    between atoms: _1108  and  _1109
REMARK  333  A    between atoms: _1108  and  _1111
REMARK  334  A    between atoms: _1111  and  _1112
REMARK  335  A    between atoms: _1112  and  _1113
REMARK  336  A    between atoms: _1124  and  _1125
REMARK  337  A    between atoms: _1125  and  _1126
REMARK  338  A    between atoms: _1125  and  _1128
REMARK  339  A    between atoms: _1128  and  _1129
REMARK  340  A    between atoms: _1136  and  _1137
REMARK  341  A    between atoms: _1137  and  _1138
REMARK  342  A    between atoms: _1137  and  _1140
REMARK  343  A    between atoms: _1140  and  _1141
REMARK  344  A    between atoms: _1141  and  _1142
REMARK  345  A    between atoms: _1142  and  _1143
REMARK  346  A    between atoms: _1160  and  _1161
REMARK  347  A    between atoms: _1161  and  _1162
REMARK  348  A    between atoms: _1161  and  _1164
REMARK  349  A    between atoms: _1164  and  _1165
REMARK  350  A    between atoms: _1164  and  _1166
REMARK  351  A    between atoms: _1174  and  _1175
REMARK  352  A    between atoms: _1175  and  _1176
REMARK  353  A    between atoms: _1175  and  _1178
REMARK  354  A    between atoms: _1178  and  _1179
REMARK  355  A    between atoms: _1179  and  _1180
REMARK  356  A    between atoms: _1179  and  _1181
REMARK  357  A    between atoms: _1193  and  _1194
REMARK  358  A    between atoms: _1194  and  _1195
REMARK  359  A    between atoms: _1194  and  _1197
REMARK  360  A    between atoms: _1197  and  _1198
REMARK  361  A    between atoms: _1197  and  _1199
REMARK  362  A    between atoms: _1207  and  _1208
REMARK  363  A    between atoms: _1208  and  _1209
REMARK  364  A    between atoms: _1208  and  _1211
REMARK  365  A    between atoms: _1211  and  _1212
REMARK  366  A    between atoms: _1211  and  _1213
REMARK  367  A    between atoms: _1212  and  _1214
REMARK  368  A    between atoms: _1226  and  _1227
REMARK  369  A    between atoms: _1227  and  _1228
REMARK  370  A    between atoms: _1227  and  _1230
REMARK  371  A    between atoms: _1230  and  _1231
REMARK  372  A    between atoms: _1230  and  _1232
REMARK  373  A    between atoms: _1242  and  _1243
REMARK  374  A    between atoms: _1243  and  _1244
REMARK  375  A    between atoms: _1243  and  _1246
REMARK  376  A    between atoms: _1246  and  _1247
REMARK  377  A    between atoms: _1254  and  _1255
REMARK  378  A    between atoms: _1255  and  _1256
REMARK  379  A    between atoms: _1255  and  _1258
REMARK  380  A    between atoms: _1258  and  _1259
REMARK  381  A    between atoms: _1258  and  _1260
REMARK  382  A    between atoms: _1268  and  _1269
REMARK  383  A    between atoms: _1269  and  _1270
REMARK  384  A    between atoms: _1275  and  _1276
REMARK  385  A    between atoms: _1276  and  _1277
REMARK  386  A    between atoms: _1276  and  _1279
REMARK  387  A    between atoms: _1279  and  _1280
REMARK  388  A    between atoms: _1279  and  _1281
REMARK  389  A    between atoms: _1280  and  _1282
REMARK  390  A    between atoms: _1294  and  _1295
REMARK  391  A    between atoms: _1295  and  _1296
REMARK  392  A    between atoms: _1301  and  _1302
REMARK  393  A    between atoms: _1302  and  _1303
REMARK  394  A    between atoms: _1302  and  _1305
REMARK  395  A    between atoms: _1305  and  _1306
REMARK  396  A    between atoms: _1306  and  _1307
REMARK  397  A    between atoms: _1307  and  _1308
REMARK  398  A    between atoms: _1318  and  _1319
REMARK  399  A    between atoms: _1319  and  _1320
REMARK  400  A    between atoms: _1319  and  _1322
REMARK  401  A    between atoms: _1322  and  _1323
REMARK  402  A    between atoms: _1322  and  _1324
REMARK  403  A    between atoms: _1332  and  _1333
REMARK  404  A    between atoms: _1333  and  _1334
REMARK  405  A    between atoms: _1333  and  _1336
REMARK  406  A    between atoms: _1336  and  _1337
REMARK  407  A    between atoms: _1337  and  _1338
REMARK  408  A    between atoms: _1338  and  _1339
REMARK  409  A    between atoms: _1339  and  _1340
REMARK  410  A    between atoms: _1354  and  _1355
REMARK  411  A    between atoms: _1355  and  _1356
REMARK  412  A    between atoms: _1355  and  _1358
REMARK  413  A    between atoms: _1364  and  _1365
REMARK  414  A    between atoms: _1365  and  _1366
REMARK  415  A    between atoms: _1365  and  _1368
REMARK  416  A    between atoms: _1368  and  _1369
REMARK  417  A    between atoms: _1376  and  _1377
REMARK  418  A    between atoms: _1377  and  _1378
REMARK  419  A    between atoms: _1377  and  _1380
REMARK  420  A    between atoms: _1380  and  _1381
REMARK  421  A    between atoms: _1381  and  _1382
REMARK  422  A    between atoms: _1381  and  _1383
REMARK  423  A    between atoms: _1395  and  _1396
REMARK  424  A    between atoms: _1396  and  _1399
REMARK  425  A    between atoms: _1399  and  _1400
REMARK  426  A    between atoms: _1399  and  _1401
REMARK  427  A    between atoms: _1400  and  _1402
REMARK  428  A    between atoms: _1422  and  _1425
REMARK  429  A    between atoms: _1424  and  _1428
REMARK  430  A    between atoms: _1425  and  _1427
REMARK  431  A    between atoms: _1443  and  _1444
REMARK  432  A    between atoms: _1443  and  _1446
REMARK  433  A    between atoms: _1446  and  _1447
REMARK  434  A    between atoms: _1457  and  _1458
REMARK  435  A    between atoms: _1458  and  _1459
REMARK  436  A    between atoms: _1458  and  _1461
REMARK  437  A    between atoms: _1461  and  _1462
REMARK  438  A    between atoms: _1462  and  _1463
REMARK  439  A    between atoms: _1462  and  _1464
REMARK  440  A    between atoms: _1476  and  _1477
REMARK  441  A    between atoms: _1477  and  _1478
REMARK  442  A    between atoms: _1483  and  _1484
REMARK  443  A    between atoms: _1484  and  _1485
REMARK  444  A    between atoms: _1484  and  _1487
REMARK  445  A    between atoms: _1487  and  _1488
REMARK  446  A    between atoms: _1487  and  _1489
REMARK  447  A    between atoms: _1497  and  _1498
REMARK  448  A    between atoms: _1498  and  _1499
REMARK  449  A    between atoms: _1498  and  _1501
REMARK  450  A    between atoms: _1501  and  _1502
REMARK  451  A    between atoms: _1501  and  _1503
REMARK  452  A    between atoms: _1502  and  _1504
REMARK  453  A    between atoms: _1516  and  _1517
REMARK  454  A    between atoms: _1517  and  _1518
REMARK  455  A    between atoms: _1517  and  _1520
REMARK  456  A    between atoms: _1526  and  _1527
REMARK  457  A    between atoms: _1527  and  _1528
REMARK  458  A    between atoms: _1527  and  _1530
REMARK  459  A    between atoms: _1530  and  _1531
REMARK  460  A    between atoms: _1531  and  _1532
REMARK  461  A    between atoms: _1532  and  _1533
REMARK  462  A    between atoms: _1533  and  _1534
REMARK  463  A    between atoms: _1548  and  _1549
REMARK  464  A    between atoms: _1549  and  _1550
REMARK  465  A    between atoms: _1549  and  _1552
REMARK  466  A    between atoms: _1552  and  _1553
REMARK  467  A    between atoms: _1559  and  _1560
REMARK  468  A    between atoms: _1560  and  _1561
REMARK  469  A    between atoms: _1566  and  _1567
REMARK  470  A    between atoms: _1567  and  _1568
REMARK  471  A    between atoms: _1567  and  _1570
REMARK  472  A    between atoms: _1570  and  _1571
REMARK  473  A    between atoms: _1570  and  _1572
REMARK  474  A    between atoms: _1580  and  _1581
REMARK  475  A    between atoms: _1581  and  _1582
REMARK  476  A    between atoms: _1581  and  _1584
REMARK  477  A    between atoms: _1584  and  _1585
REMARK  478  A    between atoms: _1585  and  _1586
REMARK  479  A    between atoms: _1586  and  _1587
REMARK  480  A    between atoms: _1587  and  _1588
REMARK  481  A    between atoms: _1602  and  _1603
REMARK  482  A    between atoms: _1603  and  _1604
REMARK  483  A    between atoms: _1603  and  _1606
REMARK  484  A    between atoms: _1612  and  _1613
REMARK  485  A    between atoms: _1613  and  _1614
REMARK  486  A    between atoms: _1613  and  _1616
REMARK  487  A    between atoms: _1616  and  _1617
REMARK  488  A    between atoms: _1632  and  _1633
REMARK  489  A    between atoms: _1633  and  _1634
REMARK  490  A    between atoms: _1633  and  _1636
REMARK  491  A    between atoms: _1636  and  _1637
REMARK  492  A    between atoms: _1637  and  _1638
REMARK  493  A    between atoms: _1638  and  _1639
REMARK  494  A    between atoms: _1649  and  _1650
REMARK  495  A    between atoms: _1650  and  _1651
REMARK  496  A    between atoms: _1650  and  _1653
REMARK  497  A    between atoms: _1653  and  _1654
REMARK  498  A    between atoms: _1654  and  _1655
REMARK  499  A    between atoms: _1664  and  _1665
REMARK  500  A    between atoms: _1665  and  _1666
REMARK  501  A    between atoms: _1665  and  _1668
REMARK  502  A    between atoms: _1674  and  _1675
REMARK  503  A    between atoms: _1675  and  _1676
REMARK  504  A    between atoms: _1675  and  _1678
REMARK  505  A    between atoms: _1678  and  _1679
REMARK  506  A    between atoms: _1679  and  _1680
REMARK  507  A    between atoms: _1679  and  _1681
REMARK  508  A    between atoms: _1693  and  _1694
REMARK  509  A    between atoms: _1694  and  _1695
REMARK  510  A    between atoms: _1694  and  _1697
REMARK  511  A    between atoms: _1697  and  _1698
REMARK  512  A    between atoms: _1698  and  _1699
REMARK  513  A    between atoms: _1710  and  _1711
REMARK  514  A    between atoms: _1711  and  _1712
REMARK  515  A    between atoms: _1711  and  _1714
REMARK  516  A    between atoms: _1720  and  _1721
REMARK  517  A    between atoms: _1721  and  _1722
REMARK  518  A    between atoms: _1727  and  _1728
REMARK  519  A    between atoms: _1728  and  _1729
REMARK  520  A    between atoms: _1728  and  _1731
REMARK  521  A    between atoms: _1737  and  _1738
REMARK  522  A    between atoms: _1738  and  _1739
REMARK  523  A    between atoms: _1738  and  _1741
REMARK  524  A    between atoms: _1741  and  _1742
REMARK  525  A    between atoms: _1749  and  _1750
REMARK  526  A    between atoms: _1750  and  _1751
REMARK  527  A    between atoms: _1750  and  _1753
REMARK  528  A    between atoms: _1753  and  _1754
REMARK  529  A    between atoms: _1753  and  _1755
REMARK  530  A    between atoms: _1754  and  _1756
REMARK  531  A    between atoms: _1768  and  _1769
REMARK  532  A    between atoms: _1769  and  _1772
REMARK  533  A    between atoms: _1772  and  _1773
REMARK  534  A    between atoms: _1791  and  _1793
REMARK  535  A    between atoms: _1792  and  _1794
REMARK  536  A    between atoms: _1814  and  _1815
REMARK  537  A    between atoms: _1814  and  _1817
REMARK  538  A    between atoms: _1817  and  _1818
REMARK  539  A    between atoms: _1817  and  _1819
REMARK  540  A    between atoms: _1818  and  _1820
REMARK  541  A    between atoms: _1833  and  _1834
REMARK  542  A    between atoms: _1834  and  _1835
REMARK  543  A    between atoms: _1840  and  _1841
REMARK  544  A    between atoms: _1841  and  _1842
REMARK  545  A    between atoms: _1841  and  _1844
REMARK  546  A    between atoms: _1844  and  _1845
REMARK  547  A    between atoms: _1845  and  _1846
REMARK  548  A    between atoms: _1857  and  _1858
REMARK  549  A    between atoms: _1858  and  _1859
REMARK  550  A    between atoms: _1858  and  _1861
REMARK  551  A    between atoms: _1861  and  _1862
REMARK  552  A    between atoms: _1877  and  _1878
REMARK  553  A    between atoms: _1878  and  _1879
REMARK  554  A    between atoms: _1884  and  _1885
REMARK  555  A    between atoms: _1885  and  _1886
REMARK  556  A    between atoms: _1885  and  _1888
REMARK  557  A    between atoms: _1888  and  _1889
REMARK  558  A    between atoms: _1888  and  _1890
REMARK  559  A    between atoms: _1900  and  _1901
REMARK  560  A    between atoms: _1901  and  _1902
REMARK  561  A    between atoms: _1907  and  _1908
REMARK  562  A    between atoms: _1908  and  _1909
REMARK  563  A    between atoms: _1908  and  _1911
REMARK  564  A    between atoms: _1911  and  _1912
REMARK  565  A    between atoms: _1927  and  _1928
REMARK  566  A    between atoms: _1928  and  _1929
REMARK  567  A    between atoms: _1928  and  _1931
REMARK  568  A    between atoms: _1931  and  _1932
REMARK  569  A    between atoms: _1937  and  _1938
REMARK  570  A    between atoms: _1948  and  _1949
REMARK  571  A    between atoms: _1949  and  _1950
REMARK  572  A    between atoms: _1949  and  _1952
REMARK  573  A    between atoms: _1952  and  _1953
REMARK  574  A    between atoms: _1959  and  _1960
REMARK  575  A    between atoms: _1960  and  _1961
REMARK  576  A    between atoms: _1960  and  _1963
REMARK  577  A    between atoms: _1969  and  _1970
REMARK  578  A    between atoms: _1970  and  _1971
REMARK  579  A    between atoms: _1970  and  _1973
REMARK  580  A    between atoms: _1973  and  _1974
REMARK  581  A    between atoms: _1979  and  _1980
REMARK  582  A    between atoms: _1990  and  _1991
REMARK  583  A    between atoms: _1991  and  _1992
REMARK  584  A    between atoms: _1991  and  _1994
REMARK  585  A    between atoms: _1994  and  _1995
REMARK  586  A    between atoms: _1995  and  _1996
REMARK  587  A    between atoms: _1995  and  _1997
REMARK  588  A    between atoms: _2009  and  _2010
REMARK  589  A    between atoms: _2010  and  _2011
REMARK  590  A    between atoms: _2010  and  _2013
REMARK  591  A    between atoms: _2013  and  _2014
REMARK  592  A    between atoms: _2013  and  _2015
REMARK  593  A    between atoms: _2025  and  _2026
REMARK  594  A    between atoms: _2026  and  _2027
REMARK  595  A    between atoms: _2026  and  _2029
REMARK  596  A    between atoms: _2035  and  _2036
REMARK  597  A    between atoms: _2036  and  _2037
REMARK  598  A    between atoms: _2036  and  _2039
REMARK  599  A    between atoms: _2039  and  _2040
REMARK  600  A    between atoms: _2040  and  _2041
REMARK  601  A    between atoms: _2050  and  _2051
REMARK  602  A    between atoms: _2051  and  _2052
REMARK  603  A    between atoms: _2051  and  _2054
REMARK  604  A    between atoms: _2054  and  _2055
REMARK  605  A    between atoms: _2055  and  _2056
REMARK  606  A    between atoms: _2056  and  _2057
REMARK  607  A    between atoms: _2057  and  _2058
REMARK  608  A    between atoms: _2072  and  _2073
REMARK  609  A    between atoms: _2073  and  _2074
REMARK  610  A    between atoms: _2073  and  _2076
REMARK  611  A    between atoms: _2076  and  _2077
REMARK  612  A    between atoms: _2076  and  _2078
REMARK  613  A    between atoms: _2088  and  _2089
REMARK  614  A    between atoms: _2089  and  _2090
REMARK  615  A    between atoms: _2089  and  _2092
REMARK  616  A    between atoms: _2092  and  _2093
REMARK  617  A    between atoms: _2092  and  _2094
REMARK  618  A    between atoms: _2102  and  _2103
REMARK  619  A    between atoms: _2103  and  _2104
REMARK  620  A    between atoms: _2103  and  _2106
REMARK  621  A    between atoms: _2106  and  _2107
REMARK  622  A    between atoms: _2106  and  _2108
REMARK  623  A    between atoms: _2118  and  _2119
REMARK  624  A    between atoms: _2119  and  _2120
REMARK  625  A    between atoms: _2119  and  _2122
REMARK  626  A    between atoms: _2122  and  _2123
REMARK  627  A    between atoms: _2122  and  _2124
REMARK  628  A    between atoms: _2123  and  _2125
REMARK  629  A    between atoms: _2137  and  _2138
REMARK  630  A    between atoms: _2138  and  _2139
REMARK  631  A    between atoms: _2138  and  _2141
REMARK  632  A    between atoms: _2141  and  _2142
REMARK  633  A    between atoms: _2141  and  _2143
REMARK  634  A    between atoms: _2151  and  _2152
REMARK  635  A    between atoms: _2152  and  _2153
REMARK  636  A    between atoms: _2152  and  _2155
REMARK  637  A    between atoms: _2155  and  _2156
REMARK  638  A    between atoms: _2156  and  _2157
REMARK  639  A    between atoms: _2157  and  _2158
REMARK  640  A    between atoms: _2158  and  _2159
REMARK  641  A    between atoms: _2173  and  _2174
REMARK  642  A    between atoms: _2174  and  _2175
REMARK  643  A    between atoms: _2174  and  _2177
REMARK  644  A    between atoms: _2177  and  _2178
REMARK  645  A    between atoms: _2190  and  _2191
REMARK  646  A    between atoms: _2191  and  _2192
REMARK  647  A    between atoms: _2191  and  _2194
REMARK  648  A    between atoms: _2194  and  _2195
REMARK  649  A    between atoms: _2204  and  _2205
REMARK  650  A    between atoms: _2205  and  _2206
REMARK  651  A    between atoms: _2205  and  _2208
REMARK  652  A    between atoms: _2208  and  _2209
REMARK  653  A    between atoms: _2216  and  _2217
REMARK  654  A    between atoms: _2217  and  _2218
REMARK  655  A    between atoms: _2217  and  _2220
REMARK  656  A    between atoms: _2220  and  _2221
REMARK  657  A    between atoms: _2228  and  _2229
REMARK  658  A    between atoms: _2229  and  _2230
REMARK  659  A    between atoms: _2229  and  _2232
REMARK  660  A    between atoms: _2232  and  _2233
REMARK  661  A    between atoms: _2233  and  _2234
REMARK  662  A    between atoms: _2243  and  _2244
REMARK  663  A    between atoms: _2244  and  _2245
REMARK  664  A    between atoms: _2244  and  _2247
REMARK  665  A    between atoms: _2247  and  _2248
REMARK  666  A    between atoms: _2248  and  _2249
REMARK  667  A    between atoms: _2260  and  _2261
REMARK  668  A    between atoms: _2261  and  _2262
REMARK  669  A    between atoms: _2261  and  _2264
REMARK  670  A    between atoms: _2264  and  _2265
REMARK  671  A    between atoms: _2270  and  _2271
REMARK  672  A    between atoms: _2281  and  _2282
REMARK  673  A    between atoms: _2282  and  _2283
REMARK  674  A    between atoms: _2282  and  _2285
REMARK  675  A    between atoms: _2291  and  _2292
REMARK  676  A    between atoms: _2292  and  _2293
REMARK  677  A    between atoms: _2292  and  _2295
REMARK  678  A    between atoms: _2295  and  _2296
REMARK  679  A    between atoms: _2315  and  _2316
REMARK  680  A    between atoms: _2316  and  _2317
REMARK  681  A    between atoms: _2316  and  _2319
REMARK  682  A    between atoms: _2319  and  _2320
REMARK  683  A    between atoms: _2320  and  _2321
REMARK  684  A    between atoms: _2330  and  _2331
REMARK  685  A    between atoms: _2331  and  _2332
REMARK  686  A    between atoms: _2331  and  _2334
REMARK  687  A    between atoms: _2334  and  _2335
REMARK  688  A    between atoms: _2341  and  _2342
REMARK  689  A    between atoms: _2342  and  _2343
REMARK  690  A    between atoms: _2342  and  _2345
REMARK  691  A    between atoms: _2345  and  _2346
REMARK  692  A    between atoms: _2352  and  _2353
REMARK  693  A    between atoms: _2353  and  _2354
REMARK  694  A    between atoms: _2353  and  _2356
REMARK  695  A    between atoms: _2362  and  _2363
REMARK  696  A    between atoms: _2363  and  _2364
REMARK  697  A    between atoms: _2369  and  _2370
REMARK  698  A    between atoms: _2370  and  _2371
REMARK  699  A    between atoms: _2376  and  _2377
REMARK  700  A    between atoms: _2377  and  _2378
REMARK  701  A    between atoms: _2377  and  _2380
REMARK  702  A    between atoms: _2380  and  _2381
REMARK  703  A    between atoms: _2387  and  _2388
REMARK  704  A    between atoms: _2388  and  _2389
REMARK  705  A    between atoms: _2388  and  _2391
REMARK  706  A    between atoms: _2391  and  _2392
REMARK  707  A    between atoms: _2407  and  _2408
REMARK  708  A    between atoms: _2408  and  _2409
REMARK  709  A    between atoms: _2408  and  _2411
REMARK  710  A    between atoms: _2411  and  _2412
REMARK  711  A    between atoms: _2411  and  _2413
REMARK  712  A    between atoms: _2421  and  _2422
REMARK  713  A    between atoms: _2422  and  _2423
REMARK  714  A    between atoms: _2422  and  _2425
REMARK  715  A    between atoms: _2425  and  _2426
REMARK  716  A    between atoms: _2425  and  _2427
REMARK  717  A    between atoms: _2437  and  _2438
REMARK  718  A    between atoms: _2438  and  _2439
REMARK  719  A    between atoms: _2438  and  _2441
REMARK  720  A    between atoms: _2441  and  _2442
REMARK  721  A    between atoms: _2442  and  _2443
REMARK  722  A    between atoms: _2443  and  _2444
REMARK  723  A    between atoms: _2461  and  _2462
REMARK  724  A    between atoms: _2462  and  _2463
REMARK  725  A    between atoms: _2462  and  _2465
REMARK  726  A    between atoms: _2465  and  _2466
REMARK  727  A    between atoms: _2465  and  _2467
REMARK  728  A    between atoms: _2475  and  _2476
REMARK  729  A    between atoms: _2476  and  _2477
REMARK  730  A    between atoms: _2476  and  _2479
REMARK  731  A    between atoms: _2479  and  _2480
REMARK  732  A    between atoms: _2487  and  _2488
REMARK  733  A    between atoms: _2488  and  _2489
REMARK  734  A    between atoms: _2488  and  _2491
REMARK  735  A    between atoms: _2491  and  _2492
REMARK  736  A    between atoms: _2491  and  _2493
REMARK  737  A    between atoms: _2501  and  _2502
REMARK  738  A    between atoms: _2502  and  _2503
REMARK  739  A    between atoms: _2508  and  _2509
REMARK  740  A    between atoms: _2509  and  _2510
REMARK  741  A    between atoms: _2509  and  _2512
REMARK  742  A    between atoms: _2512  and  _2513
REMARK  743  A    between atoms: _2513  and  _2514
REMARK  744  A    between atoms: _2524  and  _2525
REMARK  745  A    between atoms: _2537  and  _2538
REMARK  746  A    between atoms: _2538  and  _2539
REMARK  747  A    between atoms: _2538  and  _2541
REMARK  748  A    between atoms: _2541  and  _2542
REMARK  749  A    between atoms: _2542  and  _2543
REMARK  750  A    between atoms: _2543  and  _2544
REMARK  751  A    between atoms: _2554  and  _2555
REMARK  752  A    between atoms: _2555  and  _2556
REMARK  753  A    between atoms: _2561  and  _2562
REMARK  754  A    between atoms: _2562  and  _2563
REMARK  755  A    between atoms: _2562  and  _2565
REMARK  756  A    between atoms: _2565  and  _2566
REMARK  757  A    between atoms: _2566  and  _2567
REMARK  758  A    between atoms: _2567  and  _2568
REMARK  759  A    between atoms: _2585  and  _2586
REMARK  760  A    between atoms: _2586  and  _2587
REMARK  761  A    between atoms: _2592  and  _2593
REMARK  762  A    between atoms: _2593  and  _2594
REMARK  763  A    between atoms: _2593  and  _2596
REMARK  764  A    between atoms: _2596  and  _2597
REMARK  765  A    between atoms: _2596  and  _2598
REMARK  766  A    between atoms: _2606  and  _2607
REMARK  767  A    between atoms: _2607  and  _2608
REMARK  768  A    between atoms: _2607  and  _2610
REMARK  769  A    between atoms: _2610  and  _2611
REMARK  770  A    between atoms: _2611  and  _2612
REMARK  771  A    between atoms: _2612  and  _2613
REMARK  772  A    between atoms: _2613  and  _2614
REMARK  773  A    between atoms: _2628  and  _2629
REMARK  774  A    between atoms: _2629  and  _2630
REMARK  775  A    between atoms: _2629  and  _2632
REMARK  776  A    between atoms: _2632  and  _2633
REMARK  777  A    between atoms: _2632  and  _2634
REMARK  778  A    between atoms: _2644  and  _2645
REMARK  779  A    between atoms: _2645  and  _2646
REMARK  780  A    between atoms: _2645  and  _2648
REMARK  781  A    between atoms: _2648  and  _2649
REMARK  782  A    between atoms: _2648  and  _2650
REMARK  783  A    between atoms: _2649  and  _2651
REMARK  784  A    between atoms: _2663  and  _2664
REMARK  785  A    between atoms: _2664  and  _2665
REMARK  786  A    between atoms: _2664  and  _2667
REMARK  787  A    between atoms: _2667  and  _2668
REMARK  788  A    between atoms: _2668  and  _2669
REMARK  789  A    between atoms: _2668  and  _2670
REMARK  790  A    between atoms: _2682  and  _2683
REMARK  791  A    between atoms: _2683  and  _2684
REMARK  792  A    between atoms: _2683  and  _2686
REMARK  793  A    between atoms: _2686  and  _2687
REMARK  794  A    between atoms: _2699  and  _2700
REMARK  795  A    between atoms: _2700  and  _2701
REMARK  796  A    between atoms: _2700  and  _2703
REMARK  797  A    between atoms: _2703  and  _2704
REMARK  798  A    between atoms: _2704  and  _2705
REMARK  799  A    between atoms: _2704  and  _2706
REMARK  800  A    between atoms: _2718  and  _2719
REMARK  801  A    between atoms: _2719  and  _2720
REMARK  802  A    between atoms: _2719  and  _2722
REMARK  803  A    between atoms: _2722  and  _2723
REMARK  804  A    between atoms: _2723  and  _2724
REMARK  805  A    between atoms: _2724  and  _2725
REMARK  806  A    between atoms: _2725  and  _2726
REMARK  807  A    between atoms: _2740  and  _2741
REMARK  808  A    between atoms: _2741  and  _2742
REMARK  809  A    between atoms: _2741  and  _2744
REMARK  810  A    between atoms: _2744  and  _2745
REMARK  811  A    between atoms: _2745  and  _2746
REMARK  812  A    between atoms: _2755  and  _2756
REMARK  813  A    between atoms: _2756  and  _2757
REMARK  814  A    between atoms: _2756  and  _2759
REMARK  815  A    between atoms: _2759  and  _2760
REMARK  816  A    between atoms: _2767  and  _2768
REMARK  817  A    between atoms: _2768  and  _2769
REMARK  818  A    between atoms: _2768  and  _2771
REMARK  819  A    between atoms: _2771  and  _2772
REMARK  820  A    between atoms: _2772  and  _2773
REMARK  821  A    between atoms: _2784  and  _2785
REMARK  822  A    between atoms: _2785  and  _2786
REMARK  823  A    between atoms: _2785  and  _2788
REMARK  824  A    between atoms: _2788  and  _2789
REMARK  825  A    between atoms: _2788  and  _2790
REMARK  826  A    between atoms: _2798  and  _2799
REMARK  827  A    between atoms: _2799  and  _2800
REMARK  828  A    between atoms: _2799  and  _2802
REMARK  829  A    between atoms: _2802  and  _2803
REMARK  830  A    between atoms: _2803  and  _2804
REMARK  831  A    between atoms: _2813  and  _2814
REMARK  832  A    between atoms: _2814  and  _2815
REMARK  833  A    between atoms: _2814  and  _2817
REMARK  834  A    between atoms: _2817  and  _2818
REMARK  835  A    between atoms: _2823  and  _2824
REMARK  836  A    between atoms: _2834  and  _2835
REMARK  837  A    between atoms: _2835  and  _2838
REMARK  838  A    between atoms: _2838  and  _2839
REMARK  839  A    between atoms: _2839  and  _2840
REMARK  840  A    between atoms: _2839  and  _2841
REMARK  841  A    between atoms: _2884  and  _2885
REMARK  842  A    between atoms: _2884  and  _2887
REMARK  843  A    between atoms: _2887  and  _2888
REMARK  844  A    between atoms: _2888  and  _2889
REMARK  845  A    between atoms: _2899  and  _2900
REMARK  846  A    between atoms: _2900  and  _2901
REMARK  847  A    between atoms: _2900  and  _2903
REMARK  848  A    between atoms: _2903  and  _2904
REMARK  849  A    between atoms: _2904  and  _2905
REMARK  850  A    between atoms: _2905  and  _2906
REMARK  851  A    between atoms: _2923  and  _2924
REMARK  852  A    between atoms: _2924  and  _2925
REMARK  853  A    between atoms: _2924  and  _2927
REMARK  854  A    between atoms: _2927  and  _2928
REMARK  855  A    between atoms: _2928  and  _2929
REMARK  856  A    between atoms: _2929  and  _2930
REMARK  857  A    between atoms: _2947  and  _2948
REMARK  858  A    between atoms: _2948  and  _2949
REMARK  859  A    between atoms: _2948  and  _2951
REMARK  860  A    between atoms: _2951  and  _2952
REMARK  861  A    between atoms: _2951  and  _2953
REMARK  862  A    between atoms: _2952  and  _2954
REMARK  863  A    between atoms: _2966  and  _2967
REMARK  864  A    between atoms: _2967  and  _2968
REMARK  865  A    between atoms: _2967  and  _2970
REMARK  866  A    between atoms: _2970  and  _2971
REMARK  867  A    between atoms: _2971  and  _2972
REMARK  868  A    between atoms: _2972  and  _2973
REMARK  869  A    between atoms: _2973  and  _2974
REMARK  870  A    between atoms: _2988  and  _2989
REMARK  871  A    between atoms: _2989  and  _2990
REMARK  872  A    between atoms: _2989  and  _2992
REMARK  873  A    between atoms: _2992  and  _2993
REMARK  874  A    between atoms: _2993  and  _2994
REMARK  875  A    between atoms: _3003  and  _3004
REMARK  876  A    between atoms: _3004  and  _3005
REMARK  877  A    between atoms: _3004  and  _3007
REMARK  878  A    between atoms: _3007  and  _3008
REMARK  879  A    between atoms: _3007  and  _3009
REMARK  880  A    between atoms: _3008  and  _3010
REMARK  881  A    between atoms: _3022  and  _3023
REMARK  882  A    between atoms: _3023  and  _3024
REMARK  883  A    between atoms: _3023  and  _3026
REMARK  884  A    between atoms: _3026  and  _3027
REMARK  885  A    between atoms: _3026  and  _3028
REMARK  886  A    between atoms: _3038  and  _3039
REMARK  887  A    between atoms: _3039  and  _3040
REMARK  888  A    between atoms: _3039  and  _3042
REMARK  889  A    between atoms: _3042  and  _3043
REMARK  890  A    between atoms: _3043  and  _3044
REMARK  891  A    between atoms: _3044  and  _3045
REMARK  892  A    between atoms: _3045  and  _3046
REMARK  893  A    between atoms: _3060  and  _3061
REMARK  894  A    between atoms: _3061  and  _3062
REMARK  895  A    between atoms: _3061  and  _3064
REMARK  896  A    between atoms: _3064  and  _3065
REMARK  897  A    between atoms: _3065  and  _3066
REMARK  898  A    between atoms: _3066  and  _3067
REMARK  899  A    between atoms: _3067  and  _3068
REMARK  900  A    between atoms: _3082  and  _3083
REMARK  901  A    between atoms: _3083  and  _3084
REMARK  902  A    between atoms: _3083  and  _3086
REMARK  903  A    between atoms: _3086  and  _3087
REMARK  904  A    between atoms: _3099  and  _3100
REMARK  905  A    between atoms: _3100  and  _3101
REMARK  906  A    between atoms: _3100  and  _3103
REMARK  907  A    between atoms: _3103  and  _3104
REMARK  908  A    between atoms: _3110  and  _3111
REMARK  909  A    between atoms: _3111  and  _3112
REMARK  910  A    between atoms: _3111  and  _3114
REMARK  911  A    between atoms: _3114  and  _3115
REMARK  912  A    between atoms: _3115  and  _3116
REMARK  913  A    between atoms: _3127  and  _3128
REMARK  914  A    between atoms: _3128  and  _3129
REMARK  915  A    between atoms: _3128  and  _3131
REMARK  916  A    between atoms: _3131  and  _3132
REMARK  917  A    between atoms: _3147  and  _3148
REMARK  918  A    between atoms: _3148  and  _3149
REMARK  919  A    between atoms: _3148  and  _3151
REMARK  920  A    between atoms: _3151  and  _3152
REMARK  921  A    between atoms: _3151  and  _3153
REMARK  922  A    between atoms: _3152  and  _3154
REMARK  923  A    between atoms: _3166  and  _3167
REMARK  924  A    between atoms: _3167  and  _3168
REMARK  925  A    between atoms: _3173  and  _3174
REMARK  926  A    between atoms: _3174  and  _3175
REMARK  927  A    between atoms: _3174  and  _3177
REMARK  928  A    between atoms: _3177  and  _3178
REMARK  929  A    between atoms: _3183  and  _3184
REMARK  930  A    between atoms: _3195  and  _3196
REMARK  931  A    between atoms: _3208  and  _3209
REMARK  932  A    between atoms: _3209  and  _3210
REMARK  933  A    between atoms: _3209  and  _3212
REMARK  934  A    between atoms: _3212  and  _3213
REMARK  935  A    between atoms: _3212  and  _3214
REMARK  936  A    between atoms: _3213  and  _3215
REMARK  937  A    between atoms: _3227  and  _3228
REMARK  938  A    between atoms: _3228  and  _3229
REMARK  939  A    between atoms: _3228  and  _3231
REMARK  940  A    between atoms: _3231  and  _3232
REMARK  941  A    between atoms: _3231  and  _3233
REMARK  942  A    between atoms: _3241  and  _3242
REMARK  943  A    between atoms: _3242  and  _3243
REMARK  944  A    between atoms: _3242  and  _3245
REMARK  945  A    between atoms: _3245  and  _3246
REMARK  946  A    between atoms: _3246  and  _3247
REMARK  947  A    between atoms: _3246  and  _3248
REMARK  948  A    between atoms: _3260  and  _3261
REMARK  949  A    between atoms: _3261  and  _3262
REMARK  950  A    between atoms: _3261  and  _3264
REMARK  951  A    between atoms: _3264  and  _3265
REMARK  952  A    between atoms: _3280  and  _3281
REMARK  953  A    between atoms: _3281  and  _3282
REMARK  954  A    between atoms: _3281  and  _3284
REMARK  955  A    between atoms: _3284  and  _3285
REMARK  956  A    between atoms: _3284  and  _3286
REMARK  957  A    between atoms: _3296  and  _3297
REMARK  958  A    between atoms: _3297  and  _3298
REMARK  959  A    between atoms: _3297  and  _3300
REMARK  960  A    between atoms: _3300  and  _3301
REMARK  961  A    between atoms: _3301  and  _3302
REMARK                            x       y       z     vdW  Elec       q    Type
REMARK                         _______ _______ _______ _____ _____    ______ ____
ROOT
ATOM      1  C   UNL     1      -8.403  18.777  43.076  0.00  0.00    +0.000 C 
ENDROOT
TORSDOF 0
REMARK  Name = /Users/mlugowska/PhD/ML_residence_time_prediction/protein_files/5J20_protein.pdb
REMARK  961 active torsions:
REMARK  status: ('A' for Active; 'I' for Inactive)
REMARK    1  A    between atoms: _2  and  _3
REMARK    2  A    between atoms: _2  and  _5
REMARK    3  A    between atoms: _10  and  _11
REMARK    4  A    between atoms: _11  and  _12
REMARK    5  A    between atoms: _11  and  _14
REMARK    6  A    between atoms: _14  and  _15
REMARK    7  A    between atoms: _14  and  _16
REMARK    8  A    between atoms: _26  and  _27
REMARK    9  A    between atoms: _27  and  _28
REMARK   10  A    between atoms: _27  and  _30
REMARK   11  A    between atoms: _30  and  _31
REMARK   12  A    between atoms: _31  and  _32
REMARK   13  A    between atoms: _41  and  _42
REMARK   14  A    between atoms: _42  and  _43
REMARK   15  A    between atoms: _42  and  _45
REMARK   16  A    between atoms: _45  and  _46
REMARK   17  A    between atoms: _45  and  _47
REMARK   18  A    between atoms: _55  and  _56
REMARK   19  A    between atoms: _56  and  _57
REMARK   20  A    between atoms: _56  and  _59
REMARK   21  A    between atoms: _59  and  _60
REMARK   22  A    between atoms: _75  and  _76
REMARK   23  A    between atoms: _76  and  _77
REMARK   24  A    between atoms: _76  and  _79
REMARK   25  A    between atoms: _85  and  _86
REMARK   26  A    between atoms: _86  and  _87
REMARK   27  A    between atoms: _86  and  _89
REMARK   28  A    between atoms: _89  and  _90
REMARK   29  A    between atoms: _105  and  _106
REMARK   30  A    between atoms: _106  and  _107
REMARK   31  A    between atoms: _106  and  _109
REMARK   32  A    between atoms: _109  and  _110
REMARK   33  A    between atoms: _110  and  _111
REMARK   34  A    between atoms: _122  and  _123
REMARK   35  A    between atoms: _123  and  _124
REMARK   36  A    between atoms: _123  and  _126
REMARK   37  A    between atoms: _132  and  _133
REMARK   38  A    between atoms: _133  and  _134
REMARK   39  A    between atoms: _133  and  _136
REMARK   40  A    between atoms: _136  and  _137
REMARK   41  A    between atoms: _137  and  _138
REMARK   42  A    between atoms: _147  and  _148
REMARK   43  A    between atoms: _148  and  _149
REMARK   44  A    between atoms: _148  and  _151
REMARK   45  A    between atoms: _151  and  _152
REMARK   46  A    between atoms: _151  and  _153
REMARK   47  A    between atoms: _152  and  _154
REMARK   48  A    between atoms: _166  and  _167
REMARK   49  A    between atoms: _167  and  _168
REMARK   50  A    between atoms: _167  and  _170
REMARK   51  A    between atoms: _176  and  _177
REMARK   52  A    between atoms: _177  and  _178
REMARK   53  A    between atoms: _177  and  _180
REMARK   54  A    between atoms: _180  and  _181
REMARK   55  A    between atoms: _181  and  _182
REMARK   56  A    between atoms: _193  and  _194
REMARK   57  A    between atoms: _194  and  _195
REMARK   58  A    between atoms: _194  and  _197
REMARK   59  A    between atoms: _197  and  _198
REMARK   60  A    between atoms: _198  and  _199
REMARK   61  A    between atoms: _198  and  _200
REMARK   62  A    between atoms: _212  and  _213
REMARK   63  A    between atoms: _213  and  _214
REMARK   64  A    between atoms: _213  and  _216
REMARK   65  A    between atoms: _216  and  _217
REMARK   66  A    between atoms: _217  and  _218
REMARK   67  A    between atoms: _218  and  _219
REMARK   68  A    between atoms: _229  and  _230
REMARK   69  A    between atoms: _230  and  _231
REMARK   70  A    between atoms: _230  and  _233
REMARK   71  A    between atoms: _233  and  _234
REMARK   72  A    between atoms: _240  and  _241
REMARK   73  A    between atoms: _241  and  _242
REMARK   74  A    between atoms: _241  and  _244
REMARK   75  A    between atoms: _244  and  _245
REMARK   76  A    between atoms: _245  and  _246
REMARK   77  A    between atoms: _245  and  _247
REMARK   78  A    between atoms: _259  and  _260
REMARK   79  A    between atoms: _260  and  _261
REMARK   80  A    between atoms: _260  and  _263
REMARK   81  A    between atoms: _263  and  _264
REMARK   82  A    between atoms: _263  and  _265
REMARK   83  A    between atoms: _264  and  _266
REMARK   84  A    between atoms: _278  and  _279
REMARK   85  A    between atoms: _279  and  _280
REMARK   86  A    between atoms: _279  and  _282
REMARK   87  A    between atoms: _282  and  _283
REMARK   88  A    between atoms: _282  and  _284
REMARK   89  A    between atoms: _283  and  _285
REMARK   90  A    between atoms: _297  and  _298
REMARK   91  A    between atoms: _298  and  _299
REMARK   92  A    between atoms: _298  and  _301
REMARK   93  A    between atoms: _301  and  _302
REMARK   94  A    between atoms: _311  and  _312
REMARK   95  A    between atoms: _312  and  _313
REMARK   96  A    between atoms: _312  and  _315
REMARK   97  A    between atoms: _315  and  _316
REMARK   98  A    between atoms: _315  and  _317
REMARK   99  A    between atoms: _325  and  _326
REMARK  100  A    between atoms: _326  and  _327
REMARK  101  A    between atoms: _326  and  _329
REMARK  102  A    between atoms: _329  and  _330
REMARK  103  A    between atoms: _345  and  _346
REMARK  104  A    between atoms: _346  and  _347
REMARK  105  A    between atoms: _346  and  _349
REMARK  106  A    between atoms: _349  and  _350
REMARK  107  A    between atoms: _355  and  _356
REMARK  108  A    between atoms: _366  and  _367
REMARK  109  A    between atoms: _367  and  _368
REMARK  110  A    between atoms: _367  and  _370
REMARK  111  A    between atoms: _370  and  _371
REMARK  112  A    between atoms: _377  and  _378
REMARK  113  A    between atoms: _378  and  _379
REMARK  114  A    between atoms: _378  and  _381
REMARK  115  A    between atoms: _381  and  _382
REMARK  116  A    between atoms: _391  and  _392
REMARK  117  A    between atoms: _392  and  _393
REMARK  118  A    between atoms: _392  and  _395
REMARK  119  A    between atoms: _395  and  _396
REMARK  120  A    between atoms: _396  and  _397
REMARK  121  A    between atoms: _397  and  _398
REMARK  122  A    between atoms: _398  and  _399
REMARK  123  A    between atoms: _413  and  _414
REMARK  124  A    between atoms: _414  and  _415
REMARK  125  A    between atoms: _414  and  _417
REMARK  126  A    between atoms: _417  and  _418
REMARK  127  A    between atoms: _418  and  _419
REMARK  128  A    between atoms: _428  and  _429
REMARK  129  A    between atoms: _429  and  _430
REMARK  130  A    between atoms: _429  and  _432
REMARK  131  A    between atoms: _432  and  _433
REMARK  132  A    between atoms: _432  and  _434
REMARK  133  A    between atoms: _433  and  _435
REMARK  134  A    between atoms: _447  and  _448
REMARK  135  A    between atoms: _448  and  _449
REMARK  136  A    between atoms: _448  and  _451
REMARK  137  A    between atoms: _451  and  _452
REMARK  138  A    between atoms: _467  and  _468
REMARK  139  A    between atoms: _468  and  _469
REMARK  140  A    between atoms: _468  and  _471
REMARK  141  A    between atoms: _471  and  _472
REMARK  142  A    between atoms: _472  and  _473
REMARK  143  A    between atoms: _472  and  _474
REMARK  144  A    between atoms: _486  and  _487
REMARK  145  A    between atoms: _487  and  _488
REMARK  146  A    between atoms: _487  and  _490
REMARK  147  A    between atoms: _490  and  _491
REMARK  148  A    between atoms: _491  and  _492
REMARK  149  A    between atoms: _492  and  _493
REMARK  150  A    between atoms: _510  and  _511
REMARK  151  A    between atoms: _511  and  _512
REMARK  152  A    between atoms: _511  and  _514
REMARK  153  A    between atoms: _514  and  _515
REMARK  154  A    between atoms: _515  and  _516
REMARK  155  A    between atoms: _525  and  _526
REMARK  156  A    between atoms: _526  and  _527
REMARK  157  A    between atoms: _526  and  _529
REMARK  158  A    between atoms: _529  and  _530
REMARK  159  A    between atoms: _530  and  _531
REMARK  160  A    between atoms: _530  and  _532
REMARK  161  A    between atoms: _544  and  _545
REMARK  162  A    between atoms: _545  and  _546
REMARK  163  A    between atoms: _545  and  _548
REMARK  164  A    between atoms: _548  and  _549
REMARK  165  A    between atoms: _548  and  _550
REMARK  166  A    between atoms: _549  and  _551
REMARK  167  A    between atoms: _563  and  _564
REMARK  168  A    between atoms: _564  and  _565
REMARK  169  A    between atoms: _564  and  _567
REMARK  170  A    between atoms: _567  and  _568
REMARK  171  A    between atoms: _574  and  _575
REMARK  172  A    between atoms: _575  and  _576
REMARK  173  A    between atoms: _575  and  _578
REMARK  174  A    between atoms: _578  and  _579
REMARK  175  A    between atoms: _588  and  _589
REMARK  176  A    between atoms: _589  and  _590
REMARK  177  A    between atoms: _589  and  _592
REMARK  178  A    between atoms: _592  and  _593
REMARK  179  A    between atoms: _599  and  _600
REMARK  180  A    between atoms: _600  and  _601
REMARK  181  A    between atoms: _600  and  _603
REMARK  182  A    between atoms: _603  and  _604
REMARK  183  A    between atoms: _610  and  _611
REMARK  184  A    between atoms: _611  and  _612
REMARK  185  A    between atoms: _611  and  _614
REMARK  186  A    between atoms: _614  and  _615
REMARK  187  A    between atoms: _622  and  _623
REMARK  188  A    between atoms: _623  and  _624
REMARK  189  A    between atoms: _623  and  _626
REMARK  190  A    between atoms: _632  and  _633
REMARK  191  A    between atoms: _633  and  _634
REMARK  192  A    between atoms: _633  and  _636
REMARK  193  A    between atoms: _636  and  _637
REMARK  194  A    between atoms: _637  and  _638
REMARK  195  A    between atoms: _637  and  _639
REMARK  196  A    between atoms: _651  and  _652
REMARK  197  A    between atoms: _652  and  _653
REMARK  198  A    between atoms: _652  and  _655
REMARK  199  A    between atoms: _655  and  _656
REMARK  200  A    between atoms: _663  and  _664
REMARK  201  A    between atoms: _664  and  _665
REMARK  202  A    between atoms: _664  and  _667
REMARK  203  A    between atoms: _667  and  _668
REMARK  204  A    between atoms: _668  and  _669
REMARK  205  A    between atoms: _669  and  _670
REMARK  206  A    between atoms: _670  and  _671
REMARK  207  A    between atoms: _685  and  _686
REMARK  208  A    between atoms: _686  and  _687
REMARK  209  A    between atoms: _686  and  _689
REMARK  210  A    between atoms: _689  and  _690
REMARK  211  A    between atoms: _689  and  _691
REMARK  212  A    between atoms: _690  and  _692
REMARK  213  A    between atoms: _704  and  _705
REMARK  214  A    between atoms: _705  and  _706
REMARK  215  A    between atoms: _705  and  _708
REMARK  216  A    between atoms: _708  and  _709
REMARK  217  A    between atoms: _709  and  _710
REMARK  218  A    between atoms: _710  and  _711
REMARK  219  A    between atoms: _728  and  _729
REMARK  220  A    between atoms: _729  and  _730
REMARK  221  A    between atoms: _729  and  _732
REMARK  222  A    between atoms: _732  and  _733
REMARK  223  A    between atoms: _738  and  _739
REMARK  224  A    between atoms: _749  and  _750
REMARK  225  A    between atoms: _750  and  _751
REMARK  226  A    between atoms: _750  and  _753
REMARK  227  A    between atoms: _753  and  _754
REMARK  228  A    between atoms: _754  and  _755
REMARK  229  A    between atoms: _764  and  _765
REMARK  230  A    between atoms: _765  and  _766
REMARK  231  A    between atoms: _765  and  _768
REMARK  232  A    between atoms: _772  and  _773
REMARK  233  A    between atoms: _773  and  _774
REMARK  234  A    between atoms: _773  and  _776
REMARK  235  A    between atoms: _776  and  _777
REMARK  236  A    between atoms: _777  and  _778
REMARK  237  A    between atoms: _777  and  _779
REMARK  238  A    between atoms: _791  and  _792
REMARK  239  A    between atoms: _792  and  _793
REMARK  240  A    between atoms: _792  and  _795
REMARK  241  A    between atoms: _795  and  _796
REMARK  242  A    between atoms: _795  and  _797
REMARK  243  A    between atoms: _805  and  _806
REMARK  244  A    between atoms: _806  and  _807
REMARK  245  A    between atoms: _806  and  _809
REMARK  246  A    between atoms: _809  and  _810
REMARK  247  A    between atoms: _818  and  _819
REMARK  248  A    between atoms: _831  and  _832
REMARK  249  A    between atoms: _832  and  _833
REMARK  250  A    between atoms: _832  and  _835
REMARK  251  A    between atoms: _835  and  _836
REMARK  252  A    between atoms: _842  and  _843
REMARK  253  A    between atoms: _843  and  _844
REMARK  254  A    between atoms: _843  and  _846
REMARK  255  A    between atoms: _846  and  _847
REMARK  256  A    between atoms: _847  and  _848
REMARK  257  A    between atoms: _848  and  _849
REMARK  258  A    between atoms: _849  and  _850
REMARK  259  A    between atoms: _864  and  _865
REMARK  260  A    between atoms: _865  and  _866
REMARK  261  A    between atoms: _865  and  _868
REMARK  262  A    between atoms: _868  and  _869
REMARK  263  A    between atoms: _869  and  _870
REMARK  264  A    between atoms: _869  and  _871
REMARK  265  A    between atoms: _883  and  _884
REMARK  266  A    between atoms: _884  and  _885
REMARK  267  A    between atoms: _884  and  _887
REMARK  268  A    between atoms: _887  and  _888
REMARK  269  A    between atoms: _895  and  _896
REMARK  270  A    between atoms: _896  and  _897
REMARK  271  A    between atoms: _896  and  _899
REMARK  272  A    between atoms: _899  and  _900
REMARK  273  A    between atoms: _906  and  _907
REMARK  274  A    between atoms: _907  and  _908
REMARK  275  A    between atoms: _913  and  _914
REMARK  276  A    between atoms: _914  and  _915
REMARK  277  A    between atoms: _914  and  _917
REMARK  278  A    between atoms: _917  and  _918
REMARK  279  A    between atoms: _918  and  _919
REMARK  280  A    between atoms: _919  and  _920
REMARK  281  A    between atoms: _920  and  _921
REMARK  282  A    between atoms: _935  and  _936
REMARK  283  A    between atoms: _936  and  _937
REMARK  284  A    between atoms: _936  and  _939
REMARK  285  A    between atoms: _939  and  _940
REMARK  286  A    between atoms: _940  and  _941
REMARK  287  A    between atoms: _950  and  _951
REMARK  288  A    between atoms: _951  and  _952
REMARK  289  A    between atoms: _951  and  _954
REMARK  290  A    between atoms: _954  and  _955
REMARK  291  A    between atoms: _955  and  _956
REMARK  292  A    between atoms: _955  and  _957
REMARK  293  A    between atoms: _969  and  _970
REMARK  294  A    between atoms: _970  and  _971
REMARK  295  A    between atoms: _970  and  _973
REMARK  296  A    between atoms: _973  and  _974
REMARK  297  A    between atoms: _986  and  _987
REMARK  298  A    between atoms: _987  and  _988
REMARK  299  A    between atoms: _987  and  _990
REMARK  300  A    between atoms: _990  and  _991
REMARK  301  A    between atoms: _990  and  _992
REMARK  302  A    between atoms: _991  and  _993
REMARK  303  A    between atoms: _1005  and  _1006
REMARK  304  A    between atoms: _1006  and  _1007
REMARK  305  A    between atoms: _1006  and  _1009
REMARK  306  A    between atoms: _1009  and  _1010
REMARK  307  A    between atoms: _1019  and  _1020
REMARK  308  A    between atoms: _1020  and  _1021
REMARK  309  A    between atoms: _1020  and  _1023
REMARK  310  A    between atoms: _1023  and  _1024
REMARK  311  A    between atoms: _1024  and  _1025
REMARK  312  A    between atoms: _1024  and  _1026
REMARK  313  A    between atoms: _1038  and  _1039
REMARK  314  A    between atoms: _1039  and  _1040
REMARK  315  A    between atoms: _1039  and  _1042
REMARK  316  A    between atoms: _1042  and  _1043
REMARK  317  A    between atoms: _1042  and  _1044
REMARK  318  A    between atoms: _1043  and  _1045
REMARK  319  A    between atoms: _1058  and  _1059
REMARK  320  A    between atoms: _1071  and  _1072
REMARK  321  A    between atoms: _1072  and  _1073
REMARK  322  A    between atoms: _1072  and  _1075
REMARK  323  A    between atoms: _1075  and  _1076
REMARK  324  A    between atoms: _1085  and  _1086
REMARK  325  A    between atoms: _1086  and  _1087
REMARK  326  A    between atoms: _1086  and  _1089
REMARK  327  A    between atoms: _1089  and  _1090
REMARK  328  A    between atoms: _1090  and  _1091
REMARK  329  A    between atoms: _1091  and  _1092
REMARK  330  A    between atoms: _1092  and  _1093
REMARK  331  A    between atoms: _1107  and  _1108
REMARK  332  A    between atoms: _1108  and  _1109
REMARK  333  A    between atoms: _1108  and  _1111
REMARK  334  A    between atoms: _1111  and  _1112
REMARK  335  A    between atoms: _1112  and  _1113
REMARK  336  A    between atoms: _1124  and  _1125
REMARK  337  A    between atoms: _1125  and  _1126
REMARK  338  A    between atoms: _1125  and  _1128
REMARK  339  A    between atoms: _1128  and  _1129
REMARK  340  A    between atoms: _1136  and  _1137
REMARK  341  A    between atoms: _1137  and  _1138
REMARK  342  A    between atoms: _1137  and  _1140
REMARK  343  A    between atoms: _1140  and  _1141
REMARK  344  A    between atoms: _1141  and  _1142
REMARK  345  A    between atoms: _1142  and  _1143
REMARK  346  A    between atoms: _1160  and  _1161
REMARK  347  A    between atoms: _1161  and  _1162
REMARK  348  A    between atoms: _1161  and  _1164
REMARK  349  A    between atoms: _1164  and  _1165
REMARK  350  A    between atoms: _1164  and  _1166
REMARK  351  A    between atoms: _1174  and  _1175
REMARK  352  A    between atoms: _1175  and  _1176
REMARK  353  A    between atoms: _1175  and  _1178
REMARK  354  A    between atoms: _1178  and  _1179
REMARK  355  A    between atoms: _1179  and  _1180
REMARK  356  A    between atoms: _1179  and  _1181
REMARK  357  A    between atoms: _1193  and  _1194
REMARK  358  A    between atoms: _1194  and  _1195
REMARK  359  A    between atoms: _1194  and  _1197
REMARK  360  A    between atoms: _1197  and  _1198
REMARK  361  A    between atoms: _1197  and  _1199
REMARK  362  A    between atoms: _1207  and  _1208
REMARK  363  A    between atoms: _1208  and  _1209
REMARK  364  A    between atoms: _1208  and  _1211
REMARK  365  A    between atoms: _1211  and  _1212
REMARK  366  A    between atoms: _1211  and  _1213
REMARK  367  A    between atoms: _1212  and  _1214
REMARK  368  A    between atoms: _1226  and  _1227
REMARK  369  A    between atoms: _1227  and  _1228
REMARK  370  A    between atoms: _1227  and  _1230
REMARK  371  A    between atoms: _1230  and  _1231
REMARK  372  A    between atoms: _1230  and  _1232
REMARK  373  A    between atoms: _1242  and  _1243
REMARK  374  A    between atoms: _1243  and  _1244
REMARK  375  A    between atoms: _1243  and  _1246
REMARK  376  A    between atoms: _1246  and  _1247
REMARK  377  A    between atoms: _1254  and  _1255
REMARK  378  A    between atoms: _1255  and  _1256
REMARK  379  A    between atoms: _1255  and  _1258
REMARK  380  A    between atoms: _1258  and  _1259
REMARK  381  A    between atoms: _1258  and  _1260
REMARK  382  A    between atoms: _1268  and  _1269
REMARK  383  A    between atoms: _1269  and  _1270
REMARK  384  A    between atoms: _1275  and  _1276
REMARK  385  A    between atoms: _1276  and  _1277
REMARK  386  A    between atoms: _1276  and  _1279
REMARK  387  A    between atoms: _1279  and  _1280
REMARK  388  A    between atoms: _1279  and  _1281
REMARK  389  A    between atoms: _1280  and  _1282
REMARK  390  A    between atoms: _1294  and  _1295
REMARK  391  A    between atoms: _1295  and  _1296
REMARK  392  A    between atoms: _1301  and  _1302
REMARK  393  A    between atoms: _1302  and  _1303
REMARK  394  A    between atoms: _1302  and  _1305
REMARK  395  A    between atoms: _1305  and  _1306
REMARK  396  A    between atoms: _1306  and  _1307
REMARK  397  A    between atoms: _1307  and  _1308
REMARK  398  A    between atoms: _1318  and  _1319
REMARK  399  A    between atoms: _1319  and  _1320
REMARK  400  A    between atoms: _1319  and  _1322
REMARK  401  A    between atoms: _1322  and  _1323
REMARK  402  A    between atoms: _1322  and  _1324
REMARK  403  A    between atoms: _1332  and  _1333
REMARK  404  A    between atoms: _1333  and  _1334
REMARK  405  A    between atoms: _1333  and  _1336
REMARK  406  A    between atoms: _1336  and  _1337
REMARK  407  A    between atoms: _1337  and  _1338
REMARK  408  A    between atoms: _1338  and  _1339
REMARK  409  A    between atoms: _1339  and  _1340
REMARK  410  A    between atoms: _1354  and  _1355
REMARK  411  A    between atoms: _1355  and  _1356
REMARK  412  A    between atoms: _1355  and  _1358
REMARK  413  A    between atoms: _1364  and  _1365
REMARK  414  A    between atoms: _1365  and  _1366
REMARK  415  A    between atoms: _1365  and  _1368
REMARK  416  A    between atoms: _1368  and  _1369
REMARK  417  A    between atoms: _1376  and  _1377
REMARK  418  A    between atoms: _1377  and  _1378
REMARK  419  A    between atoms: _1377  and  _1380
REMARK  420  A    between atoms: _1380  and  _1381
REMARK  421  A    between atoms: _1381  and  _1382
REMARK  422  A    between atoms: _1381  and  _1383
REMARK  423  A    between atoms: _1395  and  _1396
REMARK  424  A    between atoms: _1396  and  _1399
REMARK  425  A    between atoms: _1399  and  _1400
REMARK  426  A    between atoms: _1399  and  _1401
REMARK  427  A    between atoms: _1400  and  _1402
REMARK  428  A    between atoms: _1422  and  _1425
REMARK  429  A    between atoms: _1424  and  _1428
REMARK  430  A    between atoms: _1425  and  _1427
REMARK  431  A    between atoms: _1443  and  _1444
REMARK  432  A    between atoms: _1443  and  _1446
REMARK  433  A    between atoms: _1446  and  _1447
REMARK  434  A    between atoms: _1457  and  _1458
REMARK  435  A    between atoms: _1458  and  _1459
REMARK  436  A    between atoms: _1458  and  _1461
REMARK  437  A    between atoms: _1461  and  _1462
REMARK  438  A    between atoms: _1462  and  _1463
REMARK  439  A    between atoms: _1462  and  _1464
REMARK  440  A    between atoms: _1476  and  _1477
REMARK  441  A    between atoms: _1477  and  _1478
REMARK  442  A    between atoms: _1483  and  _1484
REMARK  443  A    between atoms: _1484  and  _1485
REMARK  444  A    between atoms: _1484  and  _1487
REMARK  445  A    between atoms: _1487  and  _1488
REMARK  446  A    between atoms: _1487  and  _1489
REMARK  447  A    between atoms: _1497  and  _1498
REMARK  448  A    between atoms: _1498  and  _1499
REMARK  449  A    between atoms: _1498  and  _1501
REMARK  450  A    between atoms: _1501  and  _1502
REMARK  451  A    between atoms: _1501  and  _1503
REMARK  452  A    between atoms: _1502  and  _1504
REMARK  453  A    between atoms: _1516  and  _1517
REMARK  454  A    between atoms: _1517  and  _1518
REMARK  455  A    between atoms: _1517  and  _1520
REMARK  456  A    between atoms: _1526  and  _1527
REMARK  457  A    between atoms: _1527  and  _1528
REMARK  458  A    between atoms: _1527  and  _1530
REMARK  459  A    between atoms: _1530  and  _1531
REMARK  460  A    between atoms: _1531  and  _1532
REMARK  461  A    between atoms: _1532  and  _1533
REMARK  462  A    between atoms: _1533  and  _1534
REMARK  463  A    between atoms: _1548  and  _1549
REMARK  464  A    between atoms: _1549  and  _1550
REMARK  465  A    between atoms: _1549  and  _1552
REMARK  466  A    between atoms: _1552  and  _1553
REMARK  467  A    between atoms: _1559  and  _1560
REMARK  468  A    between atoms: _1560  and  _1561
REMARK  469  A    between atoms: _1566  and  _1567
REMARK  470  A    between atoms: _1567  and  _1568
REMARK  471  A    between atoms: _1567  and  _1570
REMARK  472  A    between atoms: _1570  and  _1571
REMARK  473  A    between atoms: _1570  and  _1572
REMARK  474  A    between atoms: _1580  and  _1581
REMARK  475  A    between atoms: _1581  and  _1582
REMARK  476  A    between atoms: _1581  and  _1584
REMARK  477  A    between atoms: _1584  and  _1585
REMARK  478  A    between atoms: _1585  and  _1586
REMARK  479  A    between atoms: _1586  and  _1587
REMARK  480  A    between atoms: _1587  and  _1588
REMARK  481  A    between atoms: _1602  and  _1603
REMARK  482  A    between atoms: _1603  and  _1604
REMARK  483  A    between atoms: _1603  and  _1606
REMARK  484  A    between atoms: _1612  and  _1613
REMARK  485  A    between atoms: _1613  and  _1614
REMARK  486  A    between atoms: _1613  and  _1616
REMARK  487  A    between atoms: _1616  and  _1617
REMARK  488  A    between atoms: _1632  and  _1633
REMARK  489  A    between atoms: _1633  and  _1634
REMARK  490  A    between atoms: _1633  and  _1636
REMARK  491  A    between atoms: _1636  and  _1637
REMARK  492  A    between atoms: _1637  and  _1638
REMARK  493  A    between atoms: _1638  and  _1639
REMARK  494  A    between atoms: _1649  and  _1650
REMARK  495  A    between atoms: _1650  and  _1651
REMARK  496  A    between atoms: _1650  and  _1653
REMARK  497  A    between atoms: _1653  and  _1654
REMARK  498  A    between atoms: _1654  and  _1655
REMARK  499  A    between atoms: _1664  and  _1665
REMARK  500  A    between atoms: _1665  and  _1666
REMARK  501  A    between atoms: _1665  and  _1668
REMARK  502  A    between atoms: _1674  and  _1675
REMARK  503  A    between atoms: _1675  and  _1676
REMARK  504  A    between atoms: _1675  and  _1678
REMARK  505  A    between atoms: _1678  and  _1679
REMARK  506  A    between atoms: _1679  and  _1680
REMARK  507  A    between atoms: _1679  and  _1681
REMARK  508  A    between atoms: _1693  and  _1694
REMARK  509  A    between atoms: _1694  and  _1695
REMARK  510  A    between atoms: _1694  and  _1697
REMARK  511  A    between atoms: _1697  and  _1698
REMARK  512  A    between atoms: _1698  and  _1699
REMARK  513  A    between atoms: _1710  and  _1711
REMARK  514  A    between atoms: _1711  and  _1712
REMARK  515  A    between atoms: _1711  and  _1714
REMARK  516  A    between atoms: _1720  and  _1721
REMARK  517  A    between atoms: _1721  and  _1722
REMARK  518  A    between atoms: _1727  and  _1728
REMARK  519  A    between atoms: _1728  and  _1729
REMARK  520  A    between atoms: _1728  and  _1731
REMARK  521  A    between atoms: _1737  and  _1738
REMARK  522  A    between atoms: _1738  and  _1739
REMARK  523  A    between atoms: _1738  and  _1741
REMARK  524  A    between atoms: _1741  and  _1742
REMARK  525  A    between atoms: _1749  and  _1750
REMARK  526  A    between atoms: _1750  and  _1751
REMARK  527  A    between atoms: _1750  and  _1753
REMARK  528  A    between atoms: _1753  and  _1754
REMARK  529  A    between atoms: _1753  and  _1755
REMARK  530  A    between atoms: _1754  and  _1756
REMARK  531  A    between atoms: _1768  and  _1769
REMARK  532  A    between atoms: _1769  and  _1772
REMARK  533  A    between atoms: _1772  and  _1773
REMARK  534  A    between atoms: _1791  and  _1793
REMARK  535  A    between atoms: _1792  and  _1794
REMARK  536  A    between atoms: _1814  and  _1815
REMARK  537  A    between atoms: _1814  and  _1817
REMARK  538  A    between atoms: _1817  and  _1818
REMARK  539  A    between atoms: _1817  and  _1819
REMARK  540  A    between atoms: _1818  and  _1820
REMARK  541  A    between atoms: _1833  and  _1834
REMARK  542  A    between atoms: _1834  and  _1835
REMARK  543  A    between atoms: _1840  and  _1841
REMARK  544  A    between atoms: _1841  and  _1842
REMARK  545  A    between atoms: _1841  and  _1844
REMARK  546  A    between atoms: _1844  and  _1845
REMARK  547  A    between atoms: _1845  and  _1846
REMARK  548  A    between atoms: _1857  and  _1858
REMARK  549  A    between atoms: _1858  and  _1859
REMARK  550  A    between atoms: _1858  and  _1861
REMARK  551  A    between atoms: _1861  and  _1862
REMARK  552  A    between atoms: _1877  and  _1878
REMARK  553  A    between atoms: _1878  and  _1879
REMARK  554  A    between atoms: _1884  and  _1885
REMARK  555  A    between atoms: _1885  and  _1886
REMARK  556  A    between atoms: _1885  and  _1888
REMARK  557  A    between atoms: _1888  and  _1889
REMARK  558  A    between atoms: _1888  and  _1890
REMARK  559  A    between atoms: _1900  and  _1901
REMARK  560  A    between atoms: _1901  and  _1902
REMARK  561  A    between atoms: _1907  and  _1908
REMARK  562  A    between atoms: _1908  and  _1909
REMARK  563  A    between atoms: _1908  and  _1911
REMARK  564  A    between atoms: _1911  and  _1912
REMARK  565  A    between atoms: _1927  and  _1928
REMARK  566  A    between atoms: _1928  and  _1929
REMARK  567  A    between atoms: _1928  and  _1931
REMARK  568  A    between atoms: _1931  and  _1932
REMARK  569  A    between atoms: _1937  and  _1938
REMARK  570  A    between atoms: _1948  and  _1949
REMARK  571  A    between atoms: _1949  and  _1950
REMARK  572  A    between atoms: _1949  and  _1952
REMARK  573  A    between atoms: _1952  and  _1953
REMARK  574  A    between atoms: _1959  and  _1960
REMARK  575  A    between atoms: _1960  and  _1961
REMARK  576  A    between atoms: _1960  and  _1963
REMARK  577  A    between atoms: _1969  and  _1970
REMARK  578  A    between atoms: _1970  and  _1971
REMARK  579  A    between atoms: _1970  and  _1973
REMARK  580  A    between atoms: _1973  and  _1974
REMARK  581  A    between atoms: _1979  and  _1980
REMARK  582  A    between atoms: _1990  and  _1991
REMARK  583  A    between atoms: _1991  and  _1992
REMARK  584  A    between atoms: _1991  and  _1994
REMARK  585  A    between atoms: _1994  and  _1995
REMARK  586  A    between atoms: _1995  and  _1996
REMARK  587  A    between atoms: _1995  and  _1997
REMARK  588  A    between atoms: _2009  and  _2010
REMARK  589  A    between atoms: _2010  and  _2011
REMARK  590  A    between atoms: _2010  and  _2013
REMARK  591  A    between atoms: _2013  and  _2014
REMARK  592  A    between atoms: _2013  and  _2015
REMARK  593  A    between atoms: _2025  and  _2026
REMARK  594  A    between atoms: _2026  and  _2027
REMARK  595  A    between atoms: _2026  and  _2029
REMARK  596  A    between atoms: _2035  and  _2036
REMARK  597  A    between atoms: _2036  and  _2037
REMARK  598  A    between atoms: _2036  and  _2039
REMARK  599  A    between atoms: _2039  and  _2040
REMARK  600  A    between atoms: _2040  and  _2041
REMARK  601  A    between atoms: _2050  and  _2051
REMARK  602  A    between atoms: _2051  and  _2052
REMARK  603  A    between atoms: _2051  and  _2054
REMARK  604  A    between atoms: _2054  and  _2055
REMARK  605  A    between atoms: _2055  and  _2056
REMARK  606  A    between atoms: _2056  and  _2057
REMARK  607  A    between atoms: _2057  and  _2058
REMARK  608  A    between atoms: _2072  and  _2073
REMARK  609  A    between atoms: _2073  and  _2074
REMARK  610  A    between atoms: _2073  and  _2076
REMARK  611  A    between atoms: _2076  and  _2077
REMARK  612  A    between atoms: _2076  and  _2078
REMARK  613  A    between atoms: _2088  and  _2089
REMARK  614  A    between atoms: _2089  and  _2090
REMARK  615  A    between atoms: _2089  and  _2092
REMARK  616  A    between atoms: _2092  and  _2093
REMARK  617  A    between atoms: _2092  and  _2094
REMARK  618  A    between atoms: _2102  and  _2103
REMARK  619  A    between atoms: _2103  and  _2104
REMARK  620  A    between atoms: _2103  and  _2106
REMARK  621  A    between atoms: _2106  and  _2107
REMARK  622  A    between atoms: _2106  and  _2108
REMARK  623  A    between atoms: _2118  and  _2119
REMARK  624  A    between atoms: _2119  and  _2120
REMARK  625  A    between atoms: _2119  and  _2122
REMARK  626  A    between atoms: _2122  and  _2123
REMARK  627  A    between atoms: _2122  and  _2124
REMARK  628  A    between atoms: _2123  and  _2125
REMARK  629  A    between atoms: _2137  and  _2138
REMARK  630  A    between atoms: _2138  and  _2139
REMARK  631  A    between atoms: _2138  and  _2141
REMARK  632  A    between atoms: _2141  and  _2142
REMARK  633  A    between atoms: _2141  and  _2143
REMARK  634  A    between atoms: _2151  and  _2152
REMARK  635  A    between atoms: _2152  and  _2153
REMARK  636  A    between atoms: _2152  and  _2155
REMARK  637  A    between atoms: _2155  and  _2156
REMARK  638  A    between atoms: _2156  and  _2157
REMARK  639  A    between atoms: _2157  and  _2158
REMARK  640  A    between atoms: _2158  and  _2159
REMARK  641  A    between atoms: _2173  and  _2174
REMARK  642  A    between atoms: _2174  and  _2175
REMARK  643  A    between atoms: _2174  and  _2177
REMARK  644  A    between atoms: _2177  and  _2178
REMARK  645  A    between atoms: _2190  and  _2191
REMARK  646  A    between atoms: _2191  and  _2192
REMARK  647  A    between atoms: _2191  and  _2194
REMARK  648  A    between atoms: _2194  and  _2195
REMARK  649  A    between atoms: _2204  and  _2205
REMARK  650  A    between atoms: _2205  and  _2206
REMARK  651  A    between atoms: _2205  and  _2208
REMARK  652  A    between atoms: _2208  and  _2209
REMARK  653  A    between atoms: _2216  and  _2217
REMARK  654  A    between atoms: _2217  and  _2218
REMARK  655  A    between atoms: _2217  and  _2220
REMARK  656  A    between atoms: _2220  and  _2221
REMARK  657  A    between atoms: _2228  and  _2229
REMARK  658  A    between atoms: _2229  and  _2230
REMARK  659  A    between atoms: _2229  and  _2232
REMARK  660  A    between atoms: _2232  and  _2233
REMARK  661  A    between atoms: _2233  and  _2234
REMARK  662  A    between atoms: _2243  and  _2244
REMARK  663  A    between atoms: _2244  and  _2245
REMARK  664  A    between atoms: _2244  and  _2247
REMARK  665  A    between atoms: _2247  and  _2248
REMARK  666  A    between atoms: _2248  and  _2249
REMARK  667  A    between atoms: _2260  and  _2261
REMARK  668  A    between atoms: _2261  and  _2262
REMARK  669  A    between atoms: _2261  and  _2264
REMARK  670  A    between atoms: _2264  and  _2265
REMARK  671  A    between atoms: _2270  and  _2271
REMARK  672  A    between atoms: _2281  and  _2282
REMARK  673  A    between atoms: _2282  and  _2283
REMARK  674  A    between atoms: _2282  and  _2285
REMARK  675  A    between atoms: _2291  and  _2292
REMARK  676  A    between atoms: _2292  and  _2293
REMARK  677  A    between atoms: _2292  and  _2295
REMARK  678  A    between atoms: _2295  and  _2296
REMARK  679  A    between atoms: _2315  and  _2316
REMARK  680  A    between atoms: _2316  and  _2317
REMARK  681  A    between atoms: _2316  and  _2319
REMARK  682  A    between atoms: _2319  and  _2320
REMARK  683  A    between atoms: _2320  and  _2321
REMARK  684  A    between atoms: _2330  and  _2331
REMARK  685  A    between atoms: _2331  and  _2332
REMARK  686  A    between atoms: _2331  and  _2334
REMARK  687  A    between atoms: _2334  and  _2335
REMARK  688  A    between atoms: _2341  and  _2342
REMARK  689  A    between atoms: _2342  and  _2343
REMARK  690  A    between atoms: _2342  and  _2345
REMARK  691  A    between atoms: _2345  and  _2346
REMARK  692  A    between atoms: _2352  and  _2353
REMARK  693  A    between atoms: _2353  and  _2354
REMARK  694  A    between atoms: _2353  and  _2356
REMARK  695  A    between atoms: _2362  and  _2363
REMARK  696  A    between atoms: _2363  and  _2364
REMARK  697  A    between atoms: _2369  and  _2370
REMARK  698  A    between atoms: _2370  and  _2371
REMARK  699  A    between atoms: _2376  and  _2377
REMARK  700  A    between atoms: _2377  and  _2378
REMARK  701  A    between atoms: _2377  and  _2380
REMARK  702  A    between atoms: _2380  and  _2381
REMARK  703  A    between atoms: _2387  and  _2388
REMARK  704  A    between atoms: _2388  and  _2389
REMARK  705  A    between atoms: _2388  and  _2391
REMARK  706  A    between atoms: _2391  and  _2392
REMARK  707  A    between atoms: _2407  and  _2408
REMARK  708  A    between atoms: _2408  and  _2409
REMARK  709  A    between atoms: _2408  and  _2411
REMARK  710  A    between atoms: _2411  and  _2412
REMARK  711  A    between atoms: _2411  and  _2413
REMARK  712  A    between atoms: _2421  and  _2422
REMARK  713  A    between atoms: _2422  and  _2423
REMARK  714  A    between atoms: _2422  and  _2425
REMARK  715  A    between atoms: _2425  and  _2426
REMARK  716  A    between atoms: _2425  and  _2427
REMARK  717  A    between atoms: _2437  and  _2438
REMARK  718  A    between atoms: _2438  and  _2439
REMARK  719  A    between atoms: _2438  and  _2441
REMARK  720  A    between atoms: _2441  and  _2442
REMARK  721  A    between atoms: _2442  and  _2443
REMARK  722  A    between atoms: _2443  and  _2444
REMARK  723  A    between atoms: _2461  and  _2462
REMARK  724  A    between atoms: _2462  and  _2463
REMARK  725  A    between atoms: _2462  and  _2465
REMARK  726  A    between atoms: _2465  and  _2466
REMARK  727  A    between atoms: _2465  and  _2467
REMARK  728  A    between atoms: _2475  and  _2476
REMARK  729  A    between atoms: _2476  and  _2477
REMARK  730  A    between atoms: _2476  and  _2479
REMARK  731  A    between atoms: _2479  and  _2480
REMARK  732  A    between atoms: _2487  and  _2488
REMARK  733  A    between atoms: _2488  and  _2489
REMARK  734  A    between atoms: _2488  and  _2491
REMARK  735  A    between atoms: _2491  and  _2492
REMARK  736  A    between atoms: _2491  and  _2493
REMARK  737  A    between atoms: _2501  and  _2502
REMARK  738  A    between atoms: _2502  and  _2503
REMARK  739  A    between atoms: _2508  and  _2509
REMARK  740  A    between atoms: _2509  and  _2510
REMARK  741  A    between atoms: _2509  and  _2512
REMARK  742  A    between atoms: _2512  and  _2513
REMARK  743  A    between atoms: _2513  and  _2514
REMARK  744  A    between atoms: _2524  and  _2525
REMARK  745  A    between atoms: _2537  and  _2538
REMARK  746  A    between atoms: _2538  and  _2539
REMARK  747  A    between atoms: _2538  and  _2541
REMARK  748  A    between atoms: _2541  and  _2542
REMARK  749  A    between atoms: _2542  and  _2543
REMARK  750  A    between atoms: _2543  and  _2544
REMARK  751  A    between atoms: _2554  and  _2555
REMARK  752  A    between atoms: _2555  and  _2556
REMARK  753  A    between atoms: _2561  and  _2562
REMARK  754  A    between atoms: _2562  and  _2563
REMARK  755  A    between atoms: _2562  and  _2565
REMARK  756  A    between atoms: _2565  and  _2566
REMARK  757  A    between atoms: _2566  and  _2567
REMARK  758  A    between atoms: _2567  and  _2568
REMARK  759  A    between atoms: _2585  and  _2586
REMARK  760  A    between atoms: _2586  and  _2587
REMARK  761  A    between atoms: _2592  and  _2593
REMARK  762  A    between atoms: _2593  and  _2594
REMARK  763  A    between atoms: _2593  and  _2596
REMARK  764  A    between atoms: _2596  and  _2597
REMARK  765  A    between atoms: _2596  and  _2598
REMARK  766  A    between atoms: _2606  and  _2607
REMARK  767  A    between atoms: _2607  and  _2608
REMARK  768  A    between atoms: _2607  and  _2610
REMARK  769  A    between atoms: _2610  and  _2611
REMARK  770  A    between atoms: _2611  and  _2612
REMARK  771  A    between atoms: _2612  and  _2613
REMARK  772  A    between atoms: _2613  and  _2614
REMARK  773  A    between atoms: _2628  and  _2629
REMARK  774  A    between atoms: _2629  and  _2630
REMARK  775  A    between atoms: _2629  and  _2632
REMARK  776  A    between atoms: _2632  and  _2633
REMARK  777  A    between atoms: _2632  and  _2634
REMARK  778  A    between atoms: _2644  and  _2645
REMARK  779  A    between atoms: _2645  and  _2646
REMARK  780  A    between atoms: _2645  and  _2648
REMARK  781  A    between atoms: _2648  and  _2649
REMARK  782  A    between atoms: _2648  and  _2650
REMARK  783  A    between atoms: _2649  and  _2651
REMARK  784  A    between atoms: _2663  and  _2664
REMARK  785  A    between atoms: _2664  and  _2665
REMARK  786  A    between atoms: _2664  and  _2667
REMARK  787  A    between atoms: _2667  and  _2668
REMARK  788  A    between atoms: _2668  and  _2669
REMARK  789  A    between atoms: _2668  and  _2670
REMARK  790  A    between atoms: _2682  and  _2683
REMARK  791  A    between atoms: _2683  and  _2684
REMARK  792  A    between atoms: _2683  and  _2686
REMARK  793  A    between atoms: _2686  and  _2687
REMARK  794  A    between atoms: _2699  and  _2700
REMARK  795  A    between atoms: _2700  and  _2701
REMARK  796  A    between atoms: _2700  and  _2703
REMARK  797  A    between atoms: _2703  and  _2704
REMARK  798  A    between atoms: _2704  and  _2705
REMARK  799  A    between atoms: _2704  and  _2706
REMARK  800  A    between atoms: _2718  and  _2719
REMARK  801  A    between atoms: _2719  and  _2720
REMARK  802  A    between atoms: _2719  and  _2722
REMARK  803  A    between atoms: _2722  and  _2723
REMARK  804  A    between atoms: _2723  and  _2724
REMARK  805  A    between atoms: _2724  and  _2725
REMARK  806  A    between atoms: _2725  and  _2726
REMARK  807  A    between atoms: _2740  and  _2741
REMARK  808  A    between atoms: _2741  and  _2742
REMARK  809  A    between atoms: _2741  and  _2744
REMARK  810  A    between atoms: _2744  and  _2745
REMARK  811  A    between atoms: _2745  and  _2746
REMARK  812  A    between atoms: _2755  and  _2756
REMARK  813  A    between atoms: _2756  and  _2757
REMARK  814  A    between atoms: _2756  and  _2759
REMARK  815  A    between atoms: _2759  and  _2760
REMARK  816  A    between atoms: _2767  and  _2768
REMARK  817  A    between atoms: _2768  and  _2769
REMARK  818  A    between atoms: _2768  and  _2771
REMARK  819  A    between atoms: _2771  and  _2772
REMARK  820  A    between atoms: _2772  and  _2773
REMARK  821  A    between atoms: _2784  and  _2785
REMARK  822  A    between atoms: _2785  and  _2786
REMARK  823  A    between atoms: _2785  and  _2788
REMARK  824  A    between atoms: _2788  and  _2789
REMARK  825  A    between atoms: _2788  and  _2790
REMARK  826  A    between atoms: _2798  and  _2799
REMARK  827  A    between atoms: _2799  and  _2800
REMARK  828  A    between atoms: _2799  and  _2802
REMARK  829  A    between atoms: _2802  and  _2803
REMARK  830  A    between atoms: _2803  and  _2804
REMARK  831  A    between atoms: _2813  and  _2814
REMARK  832  A    between atoms: _2814  and  _2815
REMARK  833  A    between atoms: _2814  and  _2817
REMARK  834  A    between atoms: _2817  and  _2818
REMARK  835  A    between atoms: _2823  and  _2824
REMARK  836  A    between atoms: _2834  and  _2835
REMARK  837  A    between atoms: _2835  and  _2838
REMARK  838  A    between atoms: _2838  and  _2839
REMARK  839  A    between atoms: _2839  and  _2840
REMARK  840  A    between atoms: _2839  and  _2841
REMARK  841  A    between atoms: _2884  and  _2885
REMARK  842  A    between atoms: _2884  and  _2887
REMARK  843  A    between atoms: _2887  and  _2888
REMARK  844  A    between atoms: _2888  and  _2889
REMARK  845  A    between atoms: _2899  and  _2900
REMARK  846  A    between atoms: _2900  and  _2901
REMARK  847  A    between atoms: _2900  and  _2903
REMARK  848  A    between atoms: _2903  and  _2904
REMARK  849  A    between atoms: _2904  and  _2905
REMARK  850  A    between atoms: _2905  and  _2906
REMARK  851  A    between atoms: _2923  and  _2924
REMARK  852  A    between atoms: _2924  and  _2925
REMARK  853  A    between atoms: _2924  and  _2927
REMARK  854  A    between atoms: _2927  and  _2928
REMARK  855  A    between atoms: _2928  and  _2929
REMARK  856  A    between atoms: _2929  and  _2930
REMARK  857  A    between atoms: _2947  and  _2948
REMARK  858  A    between atoms: _2948  and  _2949
REMARK  859  A    between atoms: _2948  and  _2951
REMARK  860  A    between atoms: _2951  and  _2952
REMARK  861  A    between atoms: _2951  and  _2953
REMARK  862  A    between atoms: _2952  and  _2954
REMARK  863  A    between atoms: _2966  and  _2967
REMARK  864  A    between atoms: _2967  and  _2968
REMARK  865  A    between atoms: _2967  and  _2970
REMARK  866  A    between atoms: _2970  and  _2971
REMARK  867  A    between atoms: _2971  and  _2972
REMARK  868  A    between atoms: _2972  and  _2973
REMARK  869  A    between atoms: _2973  and  _2974
REMARK  870  A    between atoms: _2988  and  _2989
REMARK  871  A    between atoms: _2989  and  _2990
REMARK  872  A    between atoms: _2989  and  _2992
REMARK  873  A    between atoms: _2992  and  _2993
REMARK  874  A    between atoms: _2993  and  _2994
REMARK  875  A    between atoms: _3003  and  _3004
REMARK  876  A    between atoms: _3004  and  _3005
REMARK  877  A    between atoms: _3004  and  _3007
REMARK  878  A    between atoms: _3007  and  _3008
REMARK  879  A    between atoms: _3007  and  _3009
REMARK  880  A    between atoms: _3008  and  _3010
REMARK  881  A    between atoms: _3022  and  _3023
REMARK  882  A    between atoms: _3023  and  _3024
REMARK  883  A    between atoms: _3023  and  _3026
REMARK  884  A    between atoms: _3026  and  _3027
REMARK  885  A    between atoms: _3026  and  _3028
REMARK  886  A    between atoms: _3038  and  _3039
REMARK  887  A    between atoms: _3039  and  _3040
REMARK  888  A    between atoms: _3039  and  _3042
REMARK  889  A    between atoms: _3042  and  _3043
REMARK  890  A    between atoms: _3043  and  _3044
REMARK  891  A    between atoms: _3044  and  _3045
REMARK  892  A    between atoms: _3045  and  _3046
REMARK  893  A    between atoms: _3060  and  _3061
REMARK  894  A    between atoms: _3061  and  _3062
REMARK  895  A    between atoms: _3061  and  _3064
REMARK  896  A    between atoms: _3064  and  _3065
REMARK  897  A    between atoms: _3065  and  _3066
REMARK  898  A    between atoms: _3066  and  _3067
REMARK  899  A    between atoms: _3067  and  _3068
REMARK  900  A    between atoms: _3082  and  _3083
REMARK  901  A    between atoms: _3083  and  _3084
REMARK  902  A    between atoms: _3083  and  _3086
REMARK  903  A    between atoms: _3086  and  _3087
REMARK  904  A    between atoms: _3099  and  _3100
REMARK  905  A    between atoms: _3100  and  _3101
REMARK  906  A    between atoms: _3100  and  _3103
REMARK  907  A    between atoms: _3103  and  _3104
REMARK  908  A    between atoms: _3110  and  _3111
REMARK  909  A    between atoms: _3111  and  _3112
REMARK  910  A    between atoms: _3111  and  _3114
REMARK  911  A    between atoms: _3114  and  _3115
REMARK  912  A    between atoms: _3115  and  _3116
REMARK  913  A    between atoms: _3127  and  _3128
REMARK  914  A    between atoms: _3128  and  _3129
REMARK  915  A    between atoms: _3128  and  _3131
REMARK  916  A    between atoms: _3131  and  _3132
REMARK  917  A    between atoms: _3147  and  _3148
REMARK  918  A    between atoms: _3148  and  _3149
REMARK  919  A    between atoms: _3148  and  _3151
REMARK  920  A    between atoms: _3151  and  _3152
REMARK  921  A    between atoms: _3151  and  _3153
REMARK  922  A    between atoms: _3152  and  _3154
REMARK  923  A    between atoms: _3166  and  _3167
REMARK  924  A    between atoms: _3167  and  _3168
REMARK  925  A    between atoms: _3173  and  _3174
REMARK  926  A    between atoms: _3174  and  _3175
REMARK  927  A    between atoms: _3174  and  _3177
REMARK  928  A    between atoms: _3177  and  _3178
REMARK  929  A    between atoms: _3183  and  _3184
REMARK  930  A    between atoms: _3195  and  _3196
REMARK  931  A    between atoms: _3208  and  _3209
REMARK  932  A    between atoms: _3209  and  _3210
REMARK  933  A    between atoms: _3209  and  _3212
REMARK  934  A    between atoms: _3212  and  _3213
REMARK  935  A    between atoms: _3212  and  _3214
REMARK  936  A    between atoms: _3213  and  _3215
REMARK  937  A    between atoms: _3227  and  _3228
REMARK  938  A    between atoms: _3228  and  _3229
REMARK  939  A    between atoms: _3228  and  _3231
REMARK  940  A    between atoms: _3231  and  _3232
REMARK  941  A    between atoms: _3231  and  _3233
REMARK  942  A    between atoms: _3241  and  _3242
REMARK  943  A    between atoms: _3242  and  _3243
REMARK  944  A    between atoms: _3242  and  _3245
REMARK  945  A    between atoms: _3245  and  _3246
REMARK  946  A    between atoms: _3246  and  _3247
REMARK  947  A    between atoms: _3246  and  _3248
REMARK  948  A    between atoms: _3260  and  _3261
REMARK  949  A    between atoms: _3261  and  _3262
REMARK  950  A    between atoms: _3261  and  _3264
REMARK  951  A    between atoms: _3264  and  _3265
REMARK  952  A    between atoms: _3280  and  _3281
REMARK  953  A    between atoms: _3281  and  _3282
REMARK  954  A    between atoms: _3281  and  _3284
REMARK  955  A    between atoms: _3284  and  _3285
REMARK  956  A    between atoms: _3284  and  _3286
REMARK  957  A    between atoms: _3296  and  _3297
REMARK  958  A    between atoms: _3297  and  _3298
REMARK  959  A    between atoms: _3297  and  _3300
REMARK  960  A    between atoms: _3300  and  _3301
REMARK  961  A    between atoms: _3301  and  _3302
REMARK                            x       y       z     vdW  Elec       q    Type
REMARK                         _______ _______ _______ _____ _____    ______ ____
ROOT
ATOM      1  C   UNL     1      -8.489  18.706  43.048  0.00  0.00    +0.000 C 
ENDROOT
TORSDOF 0
REMARK  Name = /Users/mlugowska/PhD/ML_residence_time_prediction/protein_files/5J20_protein.pdb
REMARK  961 active torsions:
REMARK  status: ('A' for Active; 'I' for Inactive)
REMARK    1  A    between atoms: _2  and  _3
REMARK    2  A    between atoms: _2  and  _5
REMARK    3  A    between atoms: _10  and  _11
REMARK    4  A    between atoms: _11  and  _12
REMARK    5  A    between atoms: _11  and  _14
REMARK    6  A    between atoms: _14  and  _15
REMARK    7  A    between atoms: _14  and  _16
REMARK    8  A    between atoms: _26  and  _27
REMARK    9  A    between atoms: _27  and  _28
REMARK   10  A    between atoms: _27  and  _30
REMARK   11  A    between atoms: _30  and  _31
REMARK   12  A    between atoms: _31  and  _32
REMARK   13  A    between atoms: _41  and  _42
REMARK   14  A    between atoms: _42  and  _43
REMARK   15  A    between atoms: _42  and  _45
REMARK   16  A    between atoms: _45  and  _46
REMARK   17  A    between atoms: _45  and  _47
REMARK   18  A    between atoms: _55  and  _56
REMARK   19  A    between atoms: _56  and  _57
REMARK   20  A    between atoms: _56  and  _59
REMARK   21  A    between atoms: _59  and  _60
REMARK   22  A    between atoms: _75  and  _76
REMARK   23  A    between atoms: _76  and  _77
REMARK   24  A    between atoms: _76  and  _79
REMARK   25  A    between atoms: _85  and  _86
REMARK   26  A    between atoms: _86  and  _87
REMARK   27  A    between atoms: _86  and  _89
REMARK   28  A    between atoms: _89  and  _90
REMARK   29  A    between atoms: _105  and  _106
REMARK   30  A    between atoms: _106  and  _107
REMARK   31  A    between atoms: _106  and  _109
REMARK   32  A    between atoms: _109  and  _110
REMARK   33  A    between atoms: _110  and  _111
REMARK   34  A    between atoms: _122  and  _123
REMARK   35  A    between atoms: _123  and  _124
REMARK   36  A    between atoms: _123  and  _126
REMARK   37  A    between atoms: _132  and  _133
REMARK   38  A    between atoms: _133  and  _134
REMARK   39  A    between atoms: _133  and  _136
REMARK   40  A    between atoms: _136  and  _137
REMARK   41  A    between atoms: _137  and  _138
REMARK   42  A    between atoms: _147  and  _148
REMARK   43  A    between atoms: _148  and  _149
REMARK   44  A    between atoms: _148  and  _151
REMARK   45  A    between atoms: _151  and  _152
REMARK   46  A    between atoms: _151  and  _153
REMARK   47  A    between atoms: _152  and  _154
REMARK   48  A    between atoms: _166  and  _167
REMARK   49  A    between atoms: _167  and  _168
REMARK   50  A    between atoms: _167  and  _170
REMARK   51  A    between atoms: _176  and  _177
REMARK   52  A    between atoms: _177  and  _178
REMARK   53  A    between atoms: _177  and  _180
REMARK   54  A    between atoms: _180  and  _181
REMARK   55  A    between atoms: _181  and  _182
REMARK   56  A    between atoms: _193  and  _194
REMARK   57  A    between atoms: _194  and  _195
REMARK   58  A    between atoms: _194  and  _197
REMARK   59  A    between atoms: _197  and  _198
REMARK   60  A    between atoms: _198  and  _199
REMARK   61  A    between atoms: _198  and  _200
REMARK   62  A    between atoms: _212  and  _213
REMARK   63  A    between atoms: _213  and  _214
REMARK   64  A    between atoms: _213  and  _216
REMARK   65  A    between atoms: _216  and  _217
REMARK   66  A    between atoms: _217  and  _218
REMARK   67  A    between atoms: _218  and  _219
REMARK   68  A    between atoms: _229  and  _230
REMARK   69  A    between atoms: _230  and  _231
REMARK   70  A    between atoms: _230  and  _233
REMARK   71  A    between atoms: _233  and  _234
REMARK   72  A    between atoms: _240  and  _241
REMARK   73  A    between atoms: _241  and  _242
REMARK   74  A    between atoms: _241  and  _244
REMARK   75  A    between atoms: _244  and  _245
REMARK   76  A    between atoms: _245  and  _246
REMARK   77  A    between atoms: _245  and  _247
REMARK   78  A    between atoms: _259  and  _260
REMARK   79  A    between atoms: _260  and  _261
REMARK   80  A    between atoms: _260  and  _263
REMARK   81  A    between atoms: _263  and  _264
REMARK   82  A    between atoms: _263  and  _265
REMARK   83  A    between atoms: _264  and  _266
REMARK   84  A    between atoms: _278  and  _279
REMARK   85  A    between atoms: _279  and  _280
REMARK   86  A    between atoms: _279  and  _282
REMARK   87  A    between atoms: _282  and  _283
REMARK   88  A    between atoms: _282  and  _284
REMARK   89  A    between atoms: _283  and  _285
REMARK   90  A    between atoms: _297  and  _298
REMARK   91  A    between atoms: _298  and  _299
REMARK   92  A    between atoms: _298  and  _301
REMARK   93  A    between atoms: _301  and  _302
REMARK   94  A    between atoms: _311  and  _312
REMARK   95  A    between atoms: _312  and  _313
REMARK   96  A    between atoms: _312  and  _315
REMARK   97  A    between atoms: _315  and  _316
REMARK   98  A    between atoms: _315  and  _317
REMARK   99  A    between atoms: _325  and  _326
REMARK  100  A    between atoms: _326  and  _327
REMARK  101  A    between atoms: _326  and  _329
REMARK  102  A    between atoms: _329  and  _330
REMARK  103  A    between atoms: _345  and  _346
REMARK  104  A    between atoms: _346  and  _347
REMARK  105  A    between atoms: _346  and  _349
REMARK  106  A    between atoms: _349  and  _350
REMARK  107  A    between atoms: _355  and  _356
REMARK  108  A    between atoms: _366  and  _367
REMARK  109  A    between atoms: _367  and  _368
REMARK  110  A    between atoms: _367  and  _370
REMARK  111  A    between atoms: _370  and  _371
REMARK  112  A    between atoms: _377  and  _378
REMARK  113  A    between atoms: _378  and  _379
REMARK  114  A    between atoms: _378  and  _381
REMARK  115  A    between atoms: _381  and  _382
REMARK  116  A    between atoms: _391  and  _392
REMARK  117  A    between atoms: _392  and  _393
REMARK  118  A    between atoms: _392  and  _395
REMARK  119  A    between atoms: _395  and  _396
REMARK  120  A    between atoms: _396  and  _397
REMARK  121  A    between atoms: _397  and  _398
REMARK  122  A    between atoms: _398  and  _399
REMARK  123  A    between atoms: _413  and  _414
REMARK  124  A    between atoms: _414  and  _415
REMARK  125  A    between atoms: _414  and  _417
REMARK  126  A    between atoms: _417  and  _418
REMARK  127  A    between atoms: _418  and  _419
REMARK  128  A    between atoms: _428  and  _429
REMARK  129  A    between atoms: _429  and  _430
REMARK  130  A    between atoms: _429  and  _432
REMARK  131  A    between atoms: _432  and  _433
REMARK  132  A    between atoms: _432  and  _434
REMARK  133  A    between atoms: _433  and  _435
REMARK  134  A    between atoms: _447  and  _448
REMARK  135  A    between atoms: _448  and  _449
REMARK  136  A    between atoms: _448  and  _451
REMARK  137  A    between atoms: _451  and  _452
REMARK  138  A    between atoms: _467  and  _468
REMARK  139  A    between atoms: _468  and  _469
REMARK  140  A    between atoms: _468  and  _471
REMARK  141  A    between atoms: _471  and  _472
REMARK  142  A    between atoms: _472  and  _473
REMARK  143  A    between atoms: _472  and  _474
REMARK  144  A    between atoms: _486  and  _487
REMARK  145  A    between atoms: _487  and  _488
REMARK  146  A    between atoms: _487  and  _490
REMARK  147  A    between atoms: _490  and  _491
REMARK  148  A    between atoms: _491  and  _492
REMARK  149  A    between atoms: _492  and  _493
REMARK  150  A    between atoms: _510  and  _511
REMARK  151  A    between atoms: _511  and  _512
REMARK  152  A    between atoms: _511  and  _514
REMARK  153  A    between atoms: _514  and  _515
REMARK  154  A    between atoms: _515  and  _516
REMARK  155  A    between atoms: _525  and  _526
REMARK  156  A    between atoms: _526  and  _527
REMARK  157  A    between atoms: _526  and  _529
REMARK  158  A    between atoms: _529  and  _530
REMARK  159  A    between atoms: _530  and  _531
REMARK  160  A    between atoms: _530  and  _532
REMARK  161  A    between atoms: _544  and  _545
REMARK  162  A    between atoms: _545  and  _546
REMARK  163  A    between atoms: _545  and  _548
REMARK  164  A    between atoms: _548  and  _549
REMARK  165  A    between atoms: _548  and  _550
REMARK  166  A    between atoms: _549  and  _551
REMARK  167  A    between atoms: _563  and  _564
REMARK  168  A    between atoms: _564  and  _565
REMARK  169  A    between atoms: _564  and  _567
REMARK  170  A    between atoms: _567  and  _568
REMARK  171  A    between atoms: _574  and  _575
REMARK  172  A    between atoms: _575  and  _576
REMARK  173  A    between atoms: _575  and  _578
REMARK  174  A    between atoms: _578  and  _579
REMARK  175  A    between atoms: _588  and  _589
REMARK  176  A    between atoms: _589  and  _590
REMARK  177  A    between atoms: _589  and  _592
REMARK  178  A    between atoms: _592  and  _593
REMARK  179  A    between atoms: _599  and  _600
REMARK  180  A    between atoms: _600  and  _601
REMARK  181  A    between atoms: _600  and  _603
REMARK  182  A    between atoms: _603  and  _604
REMARK  183  A    between atoms: _610  and  _611
REMARK  184  A    between atoms: _611  and  _612
REMARK  185  A    between atoms: _611  and  _614
REMARK  186  A    between atoms: _614  and  _615
REMARK  187  A    between atoms: _622  and  _623
REMARK  188  A    between atoms: _623  and  _624
REMARK  189  A    between atoms: _623  and  _626
REMARK  190  A    between atoms: _632  and  _633
REMARK  191  A    between atoms: _633  and  _634
REMARK  192  A    between atoms: _633  and  _636
REMARK  193  A    between atoms: _636  and  _637
REMARK  194  A    between atoms: _637  and  _638
REMARK  195  A    between atoms: _637  and  _639
REMARK  196  A    between atoms: _651  and  _652
REMARK  197  A    between atoms: _652  and  _653
REMARK  198  A    between atoms: _652  and  _655
REMARK  199  A    between atoms: _655  and  _656
REMARK  200  A    between atoms: _663  and  _664
REMARK  201  A    between atoms: _664  and  _665
REMARK  202  A    between atoms: _664  and  _667
REMARK  203  A    between atoms: _667  and  _668
REMARK  204  A    between atoms: _668  and  _669
REMARK  205  A    between atoms: _669  and  _670
REMARK  206  A    between atoms: _670  and  _671
REMARK  207  A    between atoms: _685  and  _686
REMARK  208  A    between atoms: _686  and  _687
REMARK  209  A    between atoms: _686  and  _689
REMARK  210  A    between atoms: _689  and  _690
REMARK  211  A    between atoms: _689  and  _691
REMARK  212  A    between atoms: _690  and  _692
REMARK  213  A    between atoms: _704  and  _705
REMARK  214  A    between atoms: _705  and  _706
REMARK  215  A    between atoms: _705  and  _708
REMARK  216  A    between atoms: _708  and  _709
REMARK  217  A    between atoms: _709  and  _710
REMARK  218  A    between atoms: _710  and  _711
REMARK  219  A    between atoms: _728  and  _729
REMARK  220  A    between atoms: _729  and  _730
REMARK  221  A    between atoms: _729  and  _732
REMARK  222  A    between atoms: _732  and  _733
REMARK  223  A    between atoms: _738  and  _739
REMARK  224  A    between atoms: _749  and  _750
REMARK  225  A    between atoms: _750  and  _751
REMARK  226  A    between atoms: _750  and  _753
REMARK  227  A    between atoms: _753  and  _754
REMARK  228  A    between atoms: _754  and  _755
REMARK  229  A    between atoms: _764  and  _765
REMARK  230  A    between atoms: _765  and  _766
REMARK  231  A    between atoms: _765  and  _768
REMARK  232  A    between atoms: _772  and  _773
REMARK  233  A    between atoms: _773  and  _774
REMARK  234  A    between atoms: _773  and  _776
REMARK  235  A    between atoms: _776  and  _777
REMARK  236  A    between atoms: _777  and  _778
REMARK  237  A    between atoms: _777  and  _779
REMARK  238  A    between atoms: _791  and  _792
REMARK  239  A    between atoms: _792  and  _793
REMARK  240  A    between atoms: _792  and  _795
REMARK  241  A    between atoms: _795  and  _796
REMARK  242  A    between atoms: _795  and  _797
REMARK  243  A    between atoms: _805  and  _806
REMARK  244  A    between atoms: _806  and  _807
REMARK  245  A    between atoms: _806  and  _809
REMARK  246  A    between atoms: _809  and  _810
REMARK  247  A    between atoms: _818  and  _819
REMARK  248  A    between atoms: _831  and  _832
REMARK  249  A    between atoms: _832  and  _833
REMARK  250  A    between atoms: _832  and  _835
REMARK  251  A    between atoms: _835  and  _836
REMARK  252  A    between atoms: _842  and  _843
REMARK  253  A    between atoms: _843  and  _844
REMARK  254  A    between atoms: _843  and  _846
REMARK  255  A    between atoms: _846  and  _847
REMARK  256  A    between atoms: _847  and  _848
REMARK  257  A    between atoms: _848  and  _849
REMARK  258  A    between atoms: _849  and  _850
REMARK  259  A    between atoms: _864  and  _865
REMARK  260  A    between atoms: _865  and  _866
REMARK  261  A    between atoms: _865  and  _868
REMARK  262  A    between atoms: _868  and  _869
REMARK  263  A    between atoms: _869  and  _870
REMARK  264  A    between atoms: _869  and  _871
REMARK  265  A    between atoms: _883  and  _884
REMARK  266  A    between atoms: _884  and  _885
REMARK  267  A    between atoms: _884  and  _887
REMARK  268  A    between atoms: _887  and  _888
REMARK  269  A    between atoms: _895  and  _896
REMARK  270  A    between atoms: _896  and  _897
REMARK  271  A    between atoms: _896  and  _899
REMARK  272  A    between atoms: _899  and  _900
REMARK  273  A    between atoms: _906  and  _907
REMARK  274  A    between atoms: _907  and  _908
REMARK  275  A    between atoms: _913  and  _914
REMARK  276  A    between atoms: _914  and  _915
REMARK  277  A    between atoms: _914  and  _917
REMARK  278  A    between atoms: _917  and  _918
REMARK  279  A    between atoms: _918  and  _919
REMARK  280  A    between atoms: _919  and  _920
REMARK  281  A    between atoms: _920  and  _921
REMARK  282  A    between atoms: _935  and  _936
REMARK  283  A    between atoms: _936  and  _937
REMARK  284  A    between atoms: _936  and  _939
REMARK  285  A    between atoms: _939  and  _940
REMARK  286  A    between atoms: _940  and  _941
REMARK  287  A    between atoms: _950  and  _951
REMARK  288  A    between atoms: _951  and  _952
REMARK  289  A    between atoms: _951  and  _954
REMARK  290  A    between atoms: _954  and  _955
REMARK  291  A    between atoms: _955  and  _956
REMARK  292  A    between atoms: _955  and  _957
REMARK  293  A    between atoms: _969  and  _970
REMARK  294  A    between atoms: _970  and  _971
REMARK  295  A    between atoms: _970  and  _973
REMARK  296  A    between atoms: _973  and  _974
REMARK  297  A    between atoms: _986  and  _987
REMARK  298  A    between atoms: _987  and  _988
REMARK  299  A    between atoms: _987  and  _990
REMARK  300  A    between atoms: _990  and  _991
REMARK  301  A    between atoms: _990  and  _992
REMARK  302  A    between atoms: _991  and  _993
REMARK  303  A    between atoms: _1005  and  _1006
REMARK  304  A    between atoms: _1006  and  _1007
REMARK  305  A    between atoms: _1006  and  _1009
REMARK  306  A    between atoms: _1009  and  _1010
REMARK  307  A    between atoms: _1019  and  _1020
REMARK  308  A    between atoms: _1020  and  _1021
REMARK  309  A    between atoms: _1020  and  _1023
REMARK  310  A    between atoms: _1023  and  _1024
REMARK  311  A    between atoms: _1024  and  _1025
REMARK  312  A    between atoms: _1024  and  _1026
REMARK  313  A    between atoms: _1038  and  _1039
REMARK  314  A    between atoms: _1039  and  _1040
REMARK  315  A    between atoms: _1039  and  _1042
REMARK  316  A    between atoms: _1042  and  _1043
REMARK  317  A    between atoms: _1042  and  _1044
REMARK  318  A    between atoms: _1043  and  _1045
REMARK  319  A    between atoms: _1058  and  _1059
REMARK  320  A    between atoms: _1071  and  _1072
REMARK  321  A    between atoms: _1072  and  _1073
REMARK  322  A    between atoms: _1072  and  _1075
REMARK  323  A    between atoms: _1075  and  _1076
REMARK  324  A    between atoms: _1085  and  _1086
REMARK  325  A    between atoms: _1086  and  _1087
REMARK  326  A    between atoms: _1086  and  _1089
REMARK  327  A    between atoms: _1089  and  _1090
REMARK  328  A    between atoms: _1090  and  _1091
REMARK  329  A    between atoms: _1091  and  _1092
REMARK  330  A    between atoms: _1092  and  _1093
REMARK  331  A    between atoms: _1107  and  _1108
REMARK  332  A    between atoms: _1108  and  _1109
REMARK  333  A    between atoms: _1108  and  _1111
REMARK  334  A    between atoms: _1111  and  _1112
REMARK  335  A    between atoms: _1112  and  _1113
REMARK  336  A    between atoms: _1124  and  _1125
REMARK  337  A    between atoms: _1125  and  _1126
REMARK  338  A    between atoms: _1125  and  _1128
REMARK  339  A    between atoms: _1128  and  _1129
REMARK  340  A    between atoms: _1136  and  _1137
REMARK  341  A    between atoms: _1137  and  _1138
REMARK  342  A    between atoms: _1137  and  _1140
REMARK  343  A    between atoms: _1140  and  _1141
REMARK  344  A    between atoms: _1141  and  _1142
REMARK  345  A    between atoms: _1142  and  _1143
REMARK  346  A    between atoms: _1160  and  _1161
REMARK  347  A    between atoms: _1161  and  _1162
REMARK  348  A    between atoms: _1161  and  _1164
REMARK  349  A    between atoms: _1164  and  _1165
REMARK  350  A    between atoms: _1164  and  _1166
REMARK  351  A    between atoms: _1174  and  _1175
REMARK  352  A    between atoms: _1175  and  _1176
REMARK  353  A    between atoms: _1175  and  _1178
REMARK  354  A    between atoms: _1178  and  _1179
REMARK  355  A    between atoms: _1179  and  _1180
REMARK  356  A    between atoms: _1179  and  _1181
REMARK  357  A    between atoms: _1193  and  _1194
REMARK  358  A    between atoms: _1194  and  _1195
REMARK  359  A    between atoms: _1194  and  _1197
REMARK  360  A    between atoms: _1197  and  _1198
REMARK  361  A    between atoms: _1197  and  _1199
REMARK  362  A    between atoms: _1207  and  _1208
REMARK  363  A    between atoms: _1208  and  _1209
REMARK  364  A    between atoms: _1208  and  _1211
REMARK  365  A    between atoms: _1211  and  _1212
REMARK  366  A    between atoms: _1211  and  _1213
REMARK  367  A    between atoms: _1212  and  _1214
REMARK  368  A    between atoms: _1226  and  _1227
REMARK  369  A    between atoms: _1227  and  _1228
REMARK  370  A    between atoms: _1227  and  _1230
REMARK  371  A    between atoms: _1230  and  _1231
REMARK  372  A    between atoms: _1230  and  _1232
REMARK  373  A    between atoms: _1242  and  _1243
REMARK  374  A    between atoms: _1243  and  _1244
REMARK  375  A    between atoms: _1243  and  _1246
REMARK  376  A    between atoms: _1246  and  _1247
REMARK  377  A    between atoms: _1254  and  _1255
REMARK  378  A    between atoms: _1255  and  _1256
REMARK  379  A    between atoms: _1255  and  _1258
REMARK  380  A    between atoms: _1258  and  _1259
REMARK  381  A    between atoms: _1258  and  _1260
REMARK  382  A    between atoms: _1268  and  _1269
REMARK  383  A    between atoms: _1269  and  _1270
REMARK  384  A    between atoms: _1275  and  _1276
REMARK  385  A    between atoms: _1276  and  _1277
REMARK  386  A    between atoms: _1276  and  _1279
REMARK  387  A    between atoms: _1279  and  _1280
REMARK  388  A    between atoms: _1279  and  _1281
REMARK  389  A    between atoms: _1280  and  _1282
REMARK  390  A    between atoms: _1294  and  _1295
REMARK  391  A    between atoms: _1295  and  _1296
REMARK  392  A    between atoms: _1301  and  _1302
REMARK  393  A    between atoms: _1302  and  _1303
REMARK  394  A    between atoms: _1302  and  _1305
REMARK  395  A    between atoms: _1305  and  _1306
REMARK  396  A    between atoms: _1306  and  _1307
REMARK  397  A    between atoms: _1307  and  _1308
REMARK  398  A    between atoms: _1318  and  _1319
REMARK  399  A    between atoms: _1319  and  _1320
REMARK  400  A    between atoms: _1319  and  _1322
REMARK  401  A    between atoms: _1322  and  _1323
REMARK  402  A    between atoms: _1322  and  _1324
REMARK  403  A    between atoms: _1332  and  _1333
REMARK  404  A    between atoms: _1333  and  _1334
REMARK  405  A    between atoms: _1333  and  _1336
REMARK  406  A    between atoms: _1336  and  _1337
REMARK  407  A    between atoms: _1337  and  _1338
REMARK  408  A    between atoms: _1338  and  _1339
REMARK  409  A    between atoms: _1339  and  _1340
REMARK  410  A    between atoms: _1354  and  _1355
REMARK  411  A    between atoms: _1355  and  _1356
REMARK  412  A    between atoms: _1355  and  _1358
REMARK  413  A    between atoms: _1364  and  _1365
REMARK  414  A    between atoms: _1365  and  _1366
REMARK  415  A    between atoms: _1365  and  _1368
REMARK  416  A    between atoms: _1368  and  _1369
REMARK  417  A    between atoms: _1376  and  _1377
REMARK  418  A    between atoms: _1377  and  _1378
REMARK  419  A    between atoms: _1377  and  _1380
REMARK  420  A    between atoms: _1380  and  _1381
REMARK  421  A    between atoms: _1381  and  _1382
REMARK  422  A    between atoms: _1381  and  _1383
REMARK  423  A    between atoms: _1395  and  _1396
REMARK  424  A    between atoms: _1396  and  _1399
REMARK  425  A    between atoms: _1399  and  _1400
REMARK  426  A    between atoms: _1399  and  _1401
REMARK  427  A    between atoms: _1400  and  _1402
REMARK  428  A    between atoms: _1422  and  _1425
REMARK  429  A    between atoms: _1424  and  _1428
REMARK  430  A    between atoms: _1425  and  _1427
REMARK  431  A    between atoms: _1443  and  _1444
REMARK  432  A    between atoms: _1443  and  _1446
REMARK  433  A    between atoms: _1446  and  _1447
REMARK  434  A    between atoms: _1457  and  _1458
REMARK  435  A    between atoms: _1458  and  _1459
REMARK  436  A    between atoms: _1458  and  _1461
REMARK  437  A    between atoms: _1461  and  _1462
REMARK  438  A    between atoms: _1462  and  _1463
REMARK  439  A    between atoms: _1462  and  _1464
REMARK  440  A    between atoms: _1476  and  _1477
REMARK  441  A    between atoms: _1477  and  _1478
REMARK  442  A    between atoms: _1483  and  _1484
REMARK  443  A    between atoms: _1484  and  _1485
REMARK  444  A    between atoms: _1484  and  _1487
REMARK  445  A    between atoms: _1487  and  _1488
REMARK  446  A    between atoms: _1487  and  _1489
REMARK  447  A    between atoms: _1497  and  _1498
REMARK  448  A    between atoms: _1498  and  _1499
REMARK  449  A    between atoms: _1498  and  _1501
REMARK  450  A    between atoms: _1501  and  _1502
REMARK  451  A    between atoms: _1501  and  _1503
REMARK  452  A    between atoms: _1502  and  _1504
REMARK  453  A    between atoms: _1516  and  _1517
REMARK  454  A    between atoms: _1517  and  _1518
REMARK  455  A    between atoms: _1517  and  _1520
REMARK  456  A    between atoms: _1526  and  _1527
REMARK  457  A    between atoms: _1527  and  _1528
REMARK  458  A    between atoms: _1527  and  _1530
REMARK  459  A    between atoms: _1530  and  _1531
REMARK  460  A    between atoms: _1531  and  _1532
REMARK  461  A    between atoms: _1532  and  _1533
REMARK  462  A    between atoms: _1533  and  _1534
REMARK  463  A    between atoms: _1548  and  _1549
REMARK  464  A    between atoms: _1549  and  _1550
REMARK  465  A    between atoms: _1549  and  _1552
REMARK  466  A    between atoms: _1552  and  _1553
REMARK  467  A    between atoms: _1559  and  _1560
REMARK  468  A    between atoms: _1560  and  _1561
REMARK  469  A    between atoms: _1566  and  _1567
REMARK  470  A    between atoms: _1567  and  _1568
REMARK  471  A    between atoms: _1567  and  _1570
REMARK  472  A    between atoms: _1570  and  _1571
REMARK  473  A    between atoms: _1570  and  _1572
REMARK  474  A    between atoms: _1580  and  _1581
REMARK  475  A    between atoms: _1581  and  _1582
REMARK  476  A    between atoms: _1581  and  _1584
REMARK  477  A    between atoms: _1584  and  _1585
REMARK  478  A    between atoms: _1585  and  _1586
REMARK  479  A    between atoms: _1586  and  _1587
REMARK  480  A    between atoms: _1587  and  _1588
REMARK  481  A    between atoms: _1602  and  _1603
REMARK  482  A    between atoms: _1603  and  _1604
REMARK  483  A    between atoms: _1603  and  _1606
REMARK  484  A    between atoms: _1612  and  _1613
REMARK  485  A    between atoms: _1613  and  _1614
REMARK  486  A    between atoms: _1613  and  _1616
REMARK  487  A    between atoms: _1616  and  _1617
REMARK  488  A    between atoms: _1632  and  _1633
REMARK  489  A    between atoms: _1633  and  _1634
REMARK  490  A    between atoms: _1633  and  _1636
REMARK  491  A    between atoms: _1636  and  _1637
REMARK  492  A    between atoms: _1637  and  _1638
REMARK  493  A    between atoms: _1638  and  _1639
REMARK  494  A    between atoms: _1649  and  _1650
REMARK  495  A    between atoms: _1650  and  _1651
REMARK  496  A    between atoms: _1650  and  _1653
REMARK  497  A    between atoms: _1653  and  _1654
REMARK  498  A    between atoms: _1654  and  _1655
REMARK  499  A    between atoms: _1664  and  _1665
REMARK  500  A    between atoms: _1665  and  _1666
REMARK  501  A    between atoms: _1665  and  _1668
REMARK  502  A    between atoms: _1674  and  _1675
REMARK  503  A    between atoms: _1675  and  _1676
REMARK  504  A    between atoms: _1675  and  _1678
REMARK  505  A    between atoms: _1678  and  _1679
REMARK  506  A    between atoms: _1679  and  _1680
REMARK  507  A    between atoms: _1679  and  _1681
REMARK  508  A    between atoms: _1693  and  _1694
REMARK  509  A    between atoms: _1694  and  _1695
REMARK  510  A    between atoms: _1694  and  _1697
REMARK  511  A    between atoms: _1697  and  _1698
REMARK  512  A    between atoms: _1698  and  _1699
REMARK  513  A    between atoms: _1710  and  _1711
REMARK  514  A    between atoms: _1711  and  _1712
REMARK  515  A    between atoms: _1711  and  _1714
REMARK  516  A    between atoms: _1720  and  _1721
REMARK  517  A    between atoms: _1721  and  _1722
REMARK  518  A    between atoms: _1727  and  _1728
REMARK  519  A    between atoms: _1728  and  _1729
REMARK  520  A    between atoms: _1728  and  _1731
REMARK  521  A    between atoms: _1737  and  _1738
REMARK  522  A    between atoms: _1738  and  _1739
REMARK  523  A    between atoms: _1738  and  _1741
REMARK  524  A    between atoms: _1741  and  _1742
REMARK  525  A    between atoms: _1749  and  _1750
REMARK  526  A    between atoms: _1750  and  _1751
REMARK  527  A    between atoms: _1750  and  _1753
REMARK  528  A    between atoms: _1753  and  _1754
REMARK  529  A    between atoms: _1753  and  _1755
REMARK  530  A    between atoms: _1754  and  _1756
REMARK  531  A    between atoms: _1768  and  _1769
REMARK  532  A    between atoms: _1769  and  _1772
REMARK  533  A    between atoms: _1772  and  _1773
REMARK  534  A    between atoms: _1791  and  _1793
REMARK  535  A    between atoms: _1792  and  _1794
REMARK  536  A    between atoms: _1814  and  _1815
REMARK  537  A    between atoms: _1814  and  _1817
REMARK  538  A    between atoms: _1817  and  _1818
REMARK  539  A    between atoms: _1817  and  _1819
REMARK  540  A    between atoms: _1818  and  _1820
REMARK  541  A    between atoms: _1833  and  _1834
REMARK  542  A    between atoms: _1834  and  _1835
REMARK  543  A    between atoms: _1840  and  _1841
REMARK  544  A    between atoms: _1841  and  _1842
REMARK  545  A    between atoms: _1841  and  _1844
REMARK  546  A    between atoms: _1844  and  _1845
REMARK  547  A    between atoms: _1845  and  _1846
REMARK  548  A    between atoms: _1857  and  _1858
REMARK  549  A    between atoms: _1858  and  _1859
REMARK  550  A    between atoms: _1858  and  _1861
REMARK  551  A    between atoms: _1861  and  _1862
REMARK  552  A    between atoms: _1877  and  _1878
REMARK  553  A    between atoms: _1878  and  _1879
REMARK  554  A    between atoms: _1884  and  _1885
REMARK  555  A    between atoms: _1885  and  _1886
REMARK  556  A    between atoms: _1885  and  _1888
REMARK  557  A    between atoms: _1888  and  _1889
REMARK  558  A    between atoms: _1888  and  _1890
REMARK  559  A    between atoms: _1900  and  _1901
REMARK  560  A    between atoms: _1901  and  _1902
REMARK  561  A    between atoms: _1907  and  _1908
REMARK  562  A    between atoms: _1908  and  _1909
REMARK  563  A    between atoms: _1908  and  _1911
REMARK  564  A    between atoms: _1911  and  _1912
REMARK  565  A    between atoms: _1927  and  _1928
REMARK  566  A    between atoms: _1928  and  _1929
REMARK  567  A    between atoms: _1928  and  _1931
REMARK  568  A    between atoms: _1931  and  _1932
REMARK  569  A    between atoms: _1937  and  _1938
REMARK  570  A    between atoms: _1948  and  _1949
REMARK  571  A    between atoms: _1949  and  _1950
REMARK  572  A    between atoms: _1949  and  _1952
REMARK  573  A    between atoms: _1952  and  _1953
REMARK  574  A    between atoms: _1959  and  _1960
REMARK  575  A    between atoms: _1960  and  _1961
REMARK  576  A    between atoms: _1960  and  _1963
REMARK  577  A    between atoms: _1969  and  _1970
REMARK  578  A    between atoms: _1970  and  _1971
REMARK  579  A    between atoms: _1970  and  _1973
REMARK  580  A    between atoms: _1973  and  _1974
REMARK  581  A    between atoms: _1979  and  _1980
REMARK  582  A    between atoms: _1990  and  _1991
REMARK  583  A    between atoms: _1991  and  _1992
REMARK  584  A    between atoms: _1991  and  _1994
REMARK  585  A    between atoms: _1994  and  _1995
REMARK  586  A    between atoms: _1995  and  _1996
REMARK  587  A    between atoms: _1995  and  _1997
REMARK  588  A    between atoms: _2009  and  _2010
REMARK  589  A    between atoms: _2010  and  _2011
REMARK  590  A    between atoms: _2010  and  _2013
REMARK  591  A    between atoms: _2013  and  _2014
REMARK  592  A    between atoms: _2013  and  _2015
REMARK  593  A    between atoms: _2025  and  _2026
REMARK  594  A    between atoms: _2026  and  _2027
REMARK  595  A    between atoms: _2026  and  _2029
REMARK  596  A    between atoms: _2035  and  _2036
REMARK  597  A    between atoms: _2036  and  _2037
REMARK  598  A    between atoms: _2036  and  _2039
REMARK  599  A    between atoms: _2039  and  _2040
REMARK  600  A    between atoms: _2040  and  _2041
REMARK  601  A    between atoms: _2050  and  _2051
REMARK  602  A    between atoms: _2051  and  _2052
REMARK  603  A    between atoms: _2051  and  _2054
REMARK  604  A    between atoms: _2054  and  _2055
REMARK  605  A    between atoms: _2055  and  _2056
REMARK  606  A    between atoms: _2056  and  _2057
REMARK  607  A    between atoms: _2057  and  _2058
REMARK  608  A    between atoms: _2072  and  _2073
REMARK  609  A    between atoms: _2073  and  _2074
REMARK  610  A    between atoms: _2073  and  _2076
REMARK  611  A    between atoms: _2076  and  _2077
REMARK  612  A    between atoms: _2076  and  _2078
REMARK  613  A    between atoms: _2088  and  _2089
REMARK  614  A    between atoms: _2089  and  _2090
REMARK  615  A    between atoms: _2089  and  _2092
REMARK  616  A    between atoms: _2092  and  _2093
REMARK  617  A    between atoms: _2092  and  _2094
REMARK  618  A    between atoms: _2102  and  _2103
REMARK  619  A    between atoms: _2103  and  _2104
REMARK  620  A    between atoms: _2103  and  _2106
REMARK  621  A    between atoms: _2106  and  _2107
REMARK  622  A    between atoms: _2106  and  _2108
REMARK  623  A    between atoms: _2118  and  _2119
REMARK  624  A    between atoms: _2119  and  _2120
REMARK  625  A    between atoms: _2119  and  _2122
REMARK  626  A    between atoms: _2122  and  _2123
REMARK  627  A    between atoms: _2122  and  _2124
REMARK  628  A    between atoms: _2123  and  _2125
REMARK  629  A    between atoms: _2137  and  _2138
REMARK  630  A    between atoms: _2138  and  _2139
REMARK  631  A    between atoms: _2138  and  _2141
REMARK  632  A    between atoms: _2141  and  _2142
REMARK  633  A    between atoms: _2141  and  _2143
REMARK  634  A    between atoms: _2151  and  _2152
REMARK  635  A    between atoms: _2152  and  _2153
REMARK  636  A    between atoms: _2152  and  _2155
REMARK  637  A    between atoms: _2155  and  _2156
REMARK  638  A    between atoms: _2156  and  _2157
REMARK  639  A    between atoms: _2157  and  _2158
REMARK  640  A    between atoms: _2158  and  _2159
REMARK  641  A    between atoms: _2173  and  _2174
REMARK  642  A    between atoms: _2174  and  _2175
REMARK  643  A    between atoms: _2174  and  _2177
REMARK  644  A    between atoms: _2177  and  _2178
REMARK  645  A    between atoms: _2190  and  _2191
REMARK  646  A    between atoms: _2191  and  _2192
REMARK  647  A    between atoms: _2191  and  _2194
REMARK  648  A    between atoms: _2194  and  _2195
REMARK  649  A    between atoms: _2204  and  _2205
REMARK  650  A    between atoms: _2205  and  _2206
REMARK  651  A    between atoms: _2205  and  _2208
REMARK  652  A    between atoms: _2208  and  _2209
REMARK  653  A    between atoms: _2216  and  _2217
REMARK  654  A    between atoms: _2217  and  _2218
REMARK  655  A    between atoms: _2217  and  _2220
REMARK  656  A    between atoms: _2220  and  _2221
REMARK  657  A    between atoms: _2228  and  _2229
REMARK  658  A    between atoms: _2229  and  _2230
REMARK  659  A    between atoms: _2229  and  _2232
REMARK  660  A    between atoms: _2232  and  _2233
REMARK  661  A    between atoms: _2233  and  _2234
REMARK  662  A    between atoms: _2243  and  _2244
REMARK  663  A    between atoms: _2244  and  _2245
REMARK  664  A    between atoms: _2244  and  _2247
REMARK  665  A    between atoms: _2247  and  _2248
REMARK  666  A    between atoms: _2248  and  _2249
REMARK  667  A    between atoms: _2260  and  _2261
REMARK  668  A    between atoms: _2261  and  _2262
REMARK  669  A    between atoms: _2261  and  _2264
REMARK  670  A    between atoms: _2264  and  _2265
REMARK  671  A    between atoms: _2270  and  _2271
REMARK  672  A    between atoms: _2281  and  _2282
REMARK  673  A    between atoms: _2282  and  _2283
REMARK  674  A    between atoms: _2282  and  _2285
REMARK  675  A    between atoms: _2291  and  _2292
REMARK  676  A    between atoms: _2292  and  _2293
REMARK  677  A    between atoms: _2292  and  _2295
REMARK  678  A    between atoms: _2295  and  _2296
REMARK  679  A    between atoms: _2315  and  _2316
REMARK  680  A    between atoms: _2316  and  _2317
REMARK  681  A    between atoms: _2316  and  _2319
REMARK  682  A    between atoms: _2319  and  _2320
REMARK  683  A    between atoms: _2320  and  _2321
REMARK  684  A    between atoms: _2330  and  _2331
REMARK  685  A    between atoms: _2331  and  _2332
REMARK  686  A    between atoms: _2331  and  _2334
REMARK  687  A    between atoms: _2334  and  _2335
REMARK  688  A    between atoms: _2341  and  _2342
REMARK  689  A    between atoms: _2342  and  _2343
REMARK  690  A    between atoms: _2342  and  _2345
REMARK  691  A    between atoms: _2345  and  _2346
REMARK  692  A    between atoms: _2352  and  _2353
REMARK  693  A    between atoms: _2353  and  _2354
REMARK  694  A    between atoms: _2353  and  _2356
REMARK  695  A    between atoms: _2362  and  _2363
REMARK  696  A    between atoms: _2363  and  _2364
REMARK  697  A    between atoms: _2369  and  _2370
REMARK  698  A    between atoms: _2370  and  _2371
REMARK  699  A    between atoms: _2376  and  _2377
REMARK  700  A    between atoms: _2377  and  _2378
REMARK  701  A    between atoms: _2377  and  _2380
REMARK  702  A    between atoms: _2380  and  _2381
REMARK  703  A    between atoms: _2387  and  _2388
REMARK  704  A    between atoms: _2388  and  _2389
REMARK  705  A    between atoms: _2388  and  _2391
REMARK  706  A    between atoms: _2391  and  _2392
REMARK  707  A    between atoms: _2407  and  _2408
REMARK  708  A    between atoms: _2408  and  _2409
REMARK  709  A    between atoms: _2408  and  _2411
REMARK  710  A    between atoms: _2411  and  _2412
REMARK  711  A    between atoms: _2411  and  _2413
REMARK  712  A    between atoms: _2421  and  _2422
REMARK  713  A    between atoms: _2422  and  _2423
REMARK  714  A    between atoms: _2422  and  _2425
REMARK  715  A    between atoms: _2425  and  _2426
REMARK  716  A    between atoms: _2425  and  _2427
REMARK  717  A    between atoms: _2437  and  _2438
REMARK  718  A    between atoms: _2438  and  _2439
REMARK  719  A    between atoms: _2438  and  _2441
REMARK  720  A    between atoms: _2441  and  _2442
REMARK  721  A    between atoms: _2442  and  _2443
REMARK  722  A    between atoms: _2443  and  _2444
REMARK  723  A    between atoms: _2461  and  _2462
REMARK  724  A    between atoms: _2462  and  _2463
REMARK  725  A    between atoms: _2462  and  _2465
REMARK  726  A    between atoms: _2465  and  _2466
REMARK  727  A    between atoms: _2465  and  _2467
REMARK  728  A    between atoms: _2475  and  _2476
REMARK  729  A    between atoms: _2476  and  _2477
REMARK  730  A    between atoms: _2476  and  _2479
REMARK  731  A    between atoms: _2479  and  _2480
REMARK  732  A    between atoms: _2487  and  _2488
REMARK  733  A    between atoms: _2488  and  _2489
REMARK  734  A    between atoms: _2488  and  _2491
REMARK  735  A    between atoms: _2491  and  _2492
REMARK  736  A    between atoms: _2491  and  _2493
REMARK  737  A    between atoms: _2501  and  _2502
REMARK  738  A    between atoms: _2502  and  _2503
REMARK  739  A    between atoms: _2508  and  _2509
REMARK  740  A    between atoms: _2509  and  _2510
REMARK  741  A    between atoms: _2509  and  _2512
REMARK  742  A    between atoms: _2512  and  _2513
REMARK  743  A    between atoms: _2513  and  _2514
REMARK  744  A    between atoms: _2524  and  _2525
REMARK  745  A    between atoms: _2537  and  _2538
REMARK  746  A    between atoms: _2538  and  _2539
REMARK  747  A    between atoms: _2538  and  _2541
REMARK  748  A    between atoms: _2541  and  _2542
REMARK  749  A    between atoms: _2542  and  _2543
REMARK  750  A    between atoms: _2543  and  _2544
REMARK  751  A    between atoms: _2554  and  _2555
REMARK  752  A    between atoms: _2555  and  _2556
REMARK  753  A    between atoms: _2561  and  _2562
REMARK  754  A    between atoms: _2562  and  _2563
REMARK  755  A    between atoms: _2562  and  _2565
REMARK  756  A    between atoms: _2565  and  _2566
REMARK  757  A    between atoms: _2566  and  _2567
REMARK  758  A    between atoms: _2567  and  _2568
REMARK  759  A    between atoms: _2585  and  _2586
REMARK  760  A    between atoms: _2586  and  _2587
REMARK  761  A    between atoms: _2592  and  _2593
REMARK  762  A    between atoms: _2593  and  _2594
REMARK  763  A    between atoms: _2593  and  _2596
REMARK  764  A    between atoms: _2596  and  _2597
REMARK  765  A    between atoms: _2596  and  _2598
REMARK  766  A    between atoms: _2606  and  _2607
REMARK  767  A    between atoms: _2607  and  _2608
REMARK  768  A    between atoms: _2607  and  _2610
REMARK  769  A    between atoms: _2610  and  _2611
REMARK  770  A    between atoms: _2611  and  _2612
REMARK  771  A    between atoms: _2612  and  _2613
REMARK  772  A    between atoms: _2613  and  _2614
REMARK  773  A    between atoms: _2628  and  _2629
REMARK  774  A    between atoms: _2629  and  _2630
REMARK  775  A    between atoms: _2629  and  _2632
REMARK  776  A    between atoms: _2632  and  _2633
REMARK  777  A    between atoms: _2632  and  _2634
REMARK  778  A    between atoms: _2644  and  _2645
REMARK  779  A    between atoms: _2645  and  _2646
REMARK  780  A    between atoms: _2645  and  _2648
REMARK  781  A    between atoms: _2648  and  _2649
REMARK  782  A    between atoms: _2648  and  _2650
REMARK  783  A    between atoms: _2649  and  _2651
REMARK  784  A    between atoms: _2663  and  _2664
REMARK  785  A    between atoms: _2664  and  _2665
REMARK  786  A    between atoms: _2664  and  _2667
REMARK  787  A    between atoms: _2667  and  _2668
REMARK  788  A    between atoms: _2668  and  _2669
REMARK  789  A    between atoms: _2668  and  _2670
REMARK  790  A    between atoms: _2682  and  _2683
REMARK  791  A    between atoms: _2683  and  _2684
REMARK  792  A    between atoms: _2683  and  _2686
REMARK  793  A    between atoms: _2686  and  _2687
REMARK  794  A    between atoms: _2699  and  _2700
REMARK  795  A    between atoms: _2700  and  _2701
REMARK  796  A    between atoms: _2700  and  _2703
REMARK  797  A    between atoms: _2703  and  _2704
REMARK  798  A    between atoms: _2704  and  _2705
REMARK  799  A    between atoms: _2704  and  _2706
REMARK  800  A    between atoms: _2718  and  _2719
REMARK  801  A    between atoms: _2719  and  _2720
REMARK  802  A    between atoms: _2719  and  _2722
REMARK  803  A    between atoms: _2722  and  _2723
REMARK  804  A    between atoms: _2723  and  _2724
REMARK  805  A    between atoms: _2724  and  _2725
REMARK  806  A    between atoms: _2725  and  _2726
REMARK  807  A    between atoms: _2740  and  _2741
REMARK  808  A    between atoms: _2741  and  _2742
REMARK  809  A    between atoms: _2741  and  _2744
REMARK  810  A    between atoms: _2744  and  _2745
REMARK  811  A    between atoms: _2745  and  _2746
REMARK  812  A    between atoms: _2755  and  _2756
REMARK  813  A    between atoms: _2756  and  _2757
REMARK  814  A    between atoms: _2756  and  _2759
REMARK  815  A    between atoms: _2759  and  _2760
REMARK  816  A    between atoms: _2767  and  _2768
REMARK  817  A    between atoms: _2768  and  _2769
REMARK  818  A    between atoms: _2768  and  _2771
REMARK  819  A    between atoms: _2771  and  _2772
REMARK  820  A    between atoms: _2772  and  _2773
REMARK  821  A    between atoms: _2784  and  _2785
REMARK  822  A    between atoms: _2785  and  _2786
REMARK  823  A    between atoms: _2785  and  _2788
REMARK  824  A    between atoms: _2788  and  _2789
REMARK  825  A    between atoms: _2788  and  _2790
REMARK  826  A    between atoms: _2798  and  _2799
REMARK  827  A    between atoms: _2799  and  _2800
REMARK  828  A    between atoms: _2799  and  _2802
REMARK  829  A    between atoms: _2802  and  _2803
REMARK  830  A    between atoms: _2803  and  _2804
REMARK  831  A    between atoms: _2813  and  _2814
REMARK  832  A    between atoms: _2814  and  _2815
REMARK  833  A    between atoms: _2814  and  _2817
REMARK  834  A    between atoms: _2817  and  _2818
REMARK  835  A    between atoms: _2823  and  _2824
REMARK  836  A    between atoms: _2834  and  _2835
REMARK  837  A    between atoms: _2835  and  _2838
REMARK  838  A    between atoms: _2838  and  _2839
REMARK  839  A    between atoms: _2839  and  _2840
REMARK  840  A    between atoms: _2839  and  _2841
REMARK  841  A    between atoms: _2884  and  _2885
REMARK  842  A    between atoms: _2884  and  _2887
REMARK  843  A    between atoms: _2887  and  _2888
REMARK  844  A    between atoms: _2888  and  _2889
REMARK  845  A    between atoms: _2899  and  _2900
REMARK  846  A    between atoms: _2900  and  _2901
REMARK  847  A    between atoms: _2900  and  _2903
REMARK  848  A    between atoms: _2903  and  _2904
REMARK  849  A    between atoms: _2904  and  _2905
REMARK  850  A    between atoms: _2905  and  _2906
REMARK  851  A    between atoms: _2923  and  _2924
REMARK  852  A    between atoms: _2924  and  _2925
REMARK  853  A    between atoms: _2924  and  _2927
REMARK  854  A    between atoms: _2927  and  _2928
REMARK  855  A    between atoms: _2928  and  _2929
REMARK  856  A    between atoms: _2929  and  _2930
REMARK  857  A    between atoms: _2947  and  _2948
REMARK  858  A    between atoms: _2948  and  _2949
REMARK  859  A    between atoms: _2948  and  _2951
REMARK  860  A    between atoms: _2951  and  _2952
REMARK  861  A    between atoms: _2951  and  _2953
REMARK  862  A    between atoms: _2952  and  _2954
REMARK  863  A    between atoms: _2966  and  _2967
REMARK  864  A    between atoms: _2967  and  _2968
REMARK  865  A    between atoms: _2967  and  _2970
REMARK  866  A    between atoms: _2970  and  _2971
REMARK  867  A    between atoms: _2971  and  _2972
REMARK  868  A    between atoms: _2972  and  _2973
REMARK  869  A    between atoms: _2973  and  _2974
REMARK  870  A    between atoms: _2988  and  _2989
REMARK  871  A    between atoms: _2989  and  _2990
REMARK  872  A    between atoms: _2989  and  _2992
REMARK  873  A    between atoms: _2992  and  _2993
REMARK  874  A    between atoms: _2993  and  _2994
REMARK  875  A    between atoms: _3003  and  _3004
REMARK  876  A    between atoms: _3004  and  _3005
REMARK  877  A    between atoms: _3004  and  _3007
REMARK  878  A    between atoms: _3007  and  _3008
REMARK  879  A    between atoms: _3007  and  _3009
REMARK  880  A    between atoms: _3008  and  _3010
REMARK  881  A    between atoms: _3022  and  _3023
REMARK  882  A    between atoms: _3023  and  _3024
REMARK  883  A    between atoms: _3023  and  _3026
REMARK  884  A    between atoms: _3026  and  _3027
REMARK  885  A    between atoms: _3026  and  _3028
REMARK  886  A    between atoms: _3038  and  _3039
REMARK  887  A    between atoms: _3039  and  _3040
REMARK  888  A    between atoms: _3039  and  _3042
REMARK  889  A    between atoms: _3042  and  _3043
REMARK  890  A    between atoms: _3043  and  _3044
REMARK  891  A    between atoms: _3044  and  _3045
REMARK  892  A    between atoms: _3045  and  _3046
REMARK  893  A    between atoms: _3060  and  _3061
REMARK  894  A    between atoms: _3061  and  _3062
REMARK  895  A    between atoms: _3061  and  _3064
REMARK  896  A    between atoms: _3064  and  _3065
REMARK  897  A    between atoms: _3065  and  _3066
REMARK  898  A    between atoms: _3066  and  _3067
REMARK  899  A    between atoms: _3067  and  _3068
REMARK  900  A    between atoms: _3082  and  _3083
REMARK  901  A    between atoms: _3083  and  _3084
REMARK  902  A    between atoms: _3083  and  _3086
REMARK  903  A    between atoms: _3086  and  _3087
REMARK  904  A    between atoms: _3099  and  _3100
REMARK  905  A    between atoms: _3100  and  _3101
REMARK  906  A    between atoms: _3100  and  _3103
REMARK  907  A    between atoms: _3103  and  _3104
REMARK  908  A    between atoms: _3110  and  _3111
REMARK  909  A    between atoms: _3111  and  _3112
REMARK  910  A    between atoms: _3111  and  _3114
REMARK  911  A    between atoms: _3114  and  _3115
REMARK  912  A    between atoms: _3115  and  _3116
REMARK  913  A    between atoms: _3127  and  _3128
REMARK  914  A    between atoms: _3128  and  _3129
REMARK  915  A    between atoms: _3128  and  _3131
REMARK  916  A    between atoms: _3131  and  _3132
REMARK  917  A    between atoms: _3147  and  _3148
REMARK  918  A    between atoms: _3148  and  _3149
REMARK  919  A    between atoms: _3148  and  _3151
REMARK  920  A    between atoms: _3151  and  _3152
REMARK  921  A    between atoms: _3151  and  _3153
REMARK  922  A    between atoms: _3152  and  _3154
REMARK  923  A    between atoms: _3166  and  _3167
REMARK  924  A    between atoms: _3167  and  _3168
REMARK  925  A    between atoms: _3173  and  _3174
REMARK  926  A    between atoms: _3174  and  _3175
REMARK  927  A    between atoms: _3174  and  _3177
REMARK  928  A    between atoms: _3177  and  _3178
REMARK  929  A    between atoms: _3183  and  _3184
REMARK  930  A    between atoms: _3195  and  _3196
REMARK  931  A    between atoms: _3208  and  _3209
REMARK  932  A    between atoms: _3209  and  _3210
REMARK  933  A    between atoms: _3209  and  _3212
REMARK  934  A    between atoms: _3212  and  _3213
REMARK  935  A    between atoms: _3212  and  _3214
REMARK  936  A    between atoms: _3213  and  _3215
REMARK  937  A    between atoms: _3227  and  _3228
REMARK  938  A    between atoms: _3228  and  _3229
REMARK  939  A    between atoms: _3228  and  _3231
REMARK  940  A    between atoms: _3231  and  _3232
REMARK  941  A    between atoms: _3231  and  _3233
REMARK  942  A    between atoms: _3241  and  _3242
REMARK  943  A    between atoms: _3242  and  _3243
REMARK  944  A    between atoms: _3242  and  _3245
REMARK  945  A    between atoms: _3245  and  _3246
REMARK  946  A    between atoms: _3246  and  _3247
REMARK  947  A    between atoms: _3246  and  _3248
REMARK  948  A    between atoms: _3260  and  _3261
REMARK  949  A    between atoms: _3261  and  _3262
REMARK  950  A    between atoms: _3261  and  _3264
REMARK  951  A    between atoms: _3264  and  _3265
REMARK  952  A    between atoms: _3280  and  _3281
REMARK  953  A    between atoms: _3281  and  _3282
REMARK  954  A    between atoms: _3281  and  _3284
REMARK  955  A    between atoms: _3284  and  _3285
REMARK  956  A    between atoms: _3284  and  _3286
REMARK  957  A    between atoms: _3296  and  _3297
REMARK  958  A    between atoms: _3297  and  _3298
REMARK  959  A    between atoms: _3297  and  _3300
REMARK  960  A    between atoms: _3300  and  _3301
REMARK  961  A    between atoms: _3301  and  _3302
REMARK                            x       y       z     vdW  Elec       q    Type
REMARK                         _______ _______ _______ _____ _____    ______ ____
ROOT
ATOM      1  C   UNL     1      -8.056  18.728  44.555  0.00  0.00    +0.500 C 
ATOM      2  O   UNL     1      -8.599  19.552  45.327  0.00  0.00    -0.250 OA
ATOM      3  O   UNL     1      -7.235  17.865  44.944  0.00  0.00    -0.250 OA
ENDROOT
TORSDOF 0
REMARK  Name = /Users/mlugowska/PhD/ML_residence_time_prediction/protein_files/5J20_protein.pdb
REMARK  961 active torsions:
REMARK  status: ('A' for Active; 'I' for Inactive)
REMARK    1  A    between atoms: _2  and  _3
REMARK    2  A    between atoms: _2  and  _5
REMARK    3  A    between atoms: _10  and  _11
REMARK    4  A    between atoms: _11  and  _12
REMARK    5  A    between atoms: _11  and  _14
REMARK    6  A    between atoms: _14  and  _15
REMARK    7  A    between atoms: _14  and  _16
REMARK    8  A    between atoms: _26  and  _27
REMARK    9  A    between atoms: _27  and  _28
REMARK   10  A    between atoms: _27  and  _30
REMARK   11  A    between atoms: _30  and  _31
REMARK   12  A    between atoms: _31  and  _32
REMARK   13  A    between atoms: _41  and  _42
REMARK   14  A    between atoms: _42  and  _43
REMARK   15  A    between atoms: _42  and  _45
REMARK   16  A    between atoms: _45  and  _46
REMARK   17  A    between atoms: _45  and  _47
REMARK   18  A    between atoms: _55  and  _56
REMARK   19  A    between atoms: _56  and  _57
REMARK   20  A    between atoms: _56  and  _59
REMARK   21  A    between atoms: _59  and  _60
REMARK   22  A    between atoms: _75  and  _76
REMARK   23  A    between atoms: _76  and  _77
REMARK   24  A    between atoms: _76  and  _79
REMARK   25  A    between atoms: _85  and  _86
REMARK   26  A    between atoms: _86  and  _87
REMARK   27  A    between atoms: _86  and  _89
REMARK   28  A    between atoms: _89  and  _90
REMARK   29  A    between atoms: _105  and  _106
REMARK   30  A    between atoms: _106  and  _107
REMARK   31  A    between atoms: _106  and  _109
REMARK   32  A    between atoms: _109  and  _110
REMARK   33  A    between atoms: _110  and  _111
REMARK   34  A    between atoms: _122  and  _123
REMARK   35  A    between atoms: _123  and  _124
REMARK   36  A    between atoms: _123  and  _126
REMARK   37  A    between atoms: _132  and  _133
REMARK   38  A    between atoms: _133  and  _134
REMARK   39  A    between atoms: _133  and  _136
REMARK   40  A    between atoms: _136  and  _137
REMARK   41  A    between atoms: _137  and  _138
REMARK   42  A    between atoms: _147  and  _148
REMARK   43  A    between atoms: _148  and  _149
REMARK   44  A    between atoms: _148  and  _151
REMARK   45  A    between atoms: _151  and  _152
REMARK   46  A    between atoms: _151  and  _153
REMARK   47  A    between atoms: _152  and  _154
REMARK   48  A    between atoms: _166  and  _167
REMARK   49  A    between atoms: _167  and  _168
REMARK   50  A    between atoms: _167  and  _170
REMARK   51  A    between atoms: _176  and  _177
REMARK   52  A    between atoms: _177  and  _178
REMARK   53  A    between atoms: _177  and  _180
REMARK   54  A    between atoms: _180  and  _181
REMARK   55  A    between atoms: _181  and  _182
REMARK   56  A    between atoms: _193  and  _194
REMARK   57  A    between atoms: _194  and  _195
REMARK   58  A    between atoms: _194  and  _197
REMARK   59  A    between atoms: _197  and  _198
REMARK   60  A    between atoms: _198  and  _199
REMARK   61  A    between atoms: _198  and  _200
REMARK   62  A    between atoms: _212  and  _213
REMARK   63  A    between atoms: _213  and  _214
REMARK   64  A    between atoms: _213  and  _216
REMARK   65  A    between atoms: _216  and  _217
REMARK   66  A    between atoms: _217  and  _218
REMARK   67  A    between atoms: _218  and  _219
REMARK   68  A    between atoms: _229  and  _230
REMARK   69  A    between atoms: _230  and  _231
REMARK   70  A    between atoms: _230  and  _233
REMARK   71  A    between atoms: _233  and  _234
REMARK   72  A    between atoms: _240  and  _241
REMARK   73  A    between atoms: _241  and  _242
REMARK   74  A    between atoms: _241  and  _244
REMARK   75  A    between atoms: _244  and  _245
REMARK   76  A    between atoms: _245  and  _246
REMARK   77  A    between atoms: _245  and  _247
REMARK   78  A    between atoms: _259  and  _260
REMARK   79  A    between atoms: _260  and  _261
REMARK   80  A    between atoms: _260  and  _263
REMARK   81  A    between atoms: _263  and  _264
REMARK   82  A    between atoms: _263  and  _265
REMARK   83  A    between atoms: _264  and  _266
REMARK   84  A    between atoms: _278  and  _279
REMARK   85  A    between atoms: _279  and  _280
REMARK   86  A    between atoms: _279  and  _282
REMARK   87  A    between atoms: _282  and  _283
REMARK   88  A    between atoms: _282  and  _284
REMARK   89  A    between atoms: _283  and  _285
REMARK   90  A    between atoms: _297  and  _298
REMARK   91  A    between atoms: _298  and  _299
REMARK   92  A    between atoms: _298  and  _301
REMARK   93  A    between atoms: _301  and  _302
REMARK   94  A    between atoms: _311  and  _312
REMARK   95  A    between atoms: _312  and  _313
REMARK   96  A    between atoms: _312  and  _315
REMARK   97  A    between atoms: _315  and  _316
REMARK   98  A    between atoms: _315  and  _317
REMARK   99  A    between atoms: _325  and  _326
REMARK  100  A    between atoms: _326  and  _327
REMARK  101  A    between atoms: _326  and  _329
REMARK  102  A    between atoms: _329  and  _330
REMARK  103  A    between atoms: _345  and  _346
REMARK  104  A    between atoms: _346  and  _347
REMARK  105  A    between atoms: _346  and  _349
REMARK  106  A    between atoms: _349  and  _350
REMARK  107  A    between atoms: _355  and  _356
REMARK  108  A    between atoms: _366  and  _367
REMARK  109  A    between atoms: _367  and  _368
REMARK  110  A    between atoms: _367  and  _370
REMARK  111  A    between atoms: _370  and  _371
REMARK  112  A    between atoms: _377  and  _378
REMARK  113  A    between atoms: _378  and  _379
REMARK  114  A    between atoms: _378  and  _381
REMARK  115  A    between atoms: _381  and  _382
REMARK  116  A    between atoms: _391  and  _392
REMARK  117  A    between atoms: _392  and  _393
REMARK  118  A    between atoms: _392  and  _395
REMARK  119  A    between atoms: _395  and  _396
REMARK  120  A    between atoms: _396  and  _397
REMARK  121  A    between atoms: _397  and  _398
REMARK  122  A    between atoms: _398  and  _399
REMARK  123  A    between atoms: _413  and  _414
REMARK  124  A    between atoms: _414  and  _415
REMARK  125  A    between atoms: _414  and  _417
REMARK  126  A    between atoms: _417  and  _418
REMARK  127  A    between atoms: _418  and  _419
REMARK  128  A    between atoms: _428  and  _429
REMARK  129  A    between atoms: _429  and  _430
REMARK  130  A    between atoms: _429  and  _432
REMARK  131  A    between atoms: _432  and  _433
REMARK  132  A    between atoms: _432  and  _434
REMARK  133  A    between atoms: _433  and  _435
REMARK  134  A    between atoms: _447  and  _448
REMARK  135  A    between atoms: _448  and  _449
REMARK  136  A    between atoms: _448  and  _451
REMARK  137  A    between atoms: _451  and  _452
REMARK  138  A    between atoms: _467  and  _468
REMARK  139  A    between atoms: _468  and  _469
REMARK  140  A    between atoms: _468  and  _471
REMARK  141  A    between atoms: _471  and  _472
REMARK  142  A    between atoms: _472  and  _473
REMARK  143  A    between atoms: _472  and  _474
REMARK  144  A    between atoms: _486  and  _487
REMARK  145  A    between atoms: _487  and  _488
REMARK  146  A    between atoms: _487  and  _490
REMARK  147  A    between atoms: _490  and  _491
REMARK  148  A    between atoms: _491  and  _492
REMARK  149  A    between atoms: _492  and  _493
REMARK  150  A    between atoms: _510  and  _511
REMARK  151  A    between atoms: _511  and  _512
REMARK  152  A    between atoms: _511  and  _514
REMARK  153  A    between atoms: _514  and  _515
REMARK  154  A    between atoms: _515  and  _516
REMARK  155  A    between atoms: _525  and  _526
REMARK  156  A    between atoms: _526  and  _527
REMARK  157  A    between atoms: _526  and  _529
REMARK  158  A    between atoms: _529  and  _530
REMARK  159  A    between atoms: _530  and  _531
REMARK  160  A    between atoms: _530  and  _532
REMARK  161  A    between atoms: _544  and  _545
REMARK  162  A    between atoms: _545  and  _546
REMARK  163  A    between atoms: _545  and  _548
REMARK  164  A    between atoms: _548  and  _549
REMARK  165  A    between atoms: _548  and  _550
REMARK  166  A    between atoms: _549  and  _551
REMARK  167  A    between atoms: _563  and  _564
REMARK  168  A    between atoms: _564  and  _565
REMARK  169  A    between atoms: _564  and  _567
REMARK  170  A    between atoms: _567  and  _568
REMARK  171  A    between atoms: _574  and  _575
REMARK  172  A    between atoms: _575  and  _576
REMARK  173  A    between atoms: _575  and  _578
REMARK  174  A    between atoms: _578  and  _579
REMARK  175  A    between atoms: _588  and  _589
REMARK  176  A    between atoms: _589  and  _590
REMARK  177  A    between atoms: _589  and  _592
REMARK  178  A    between atoms: _592  and  _593
REMARK  179  A    between atoms: _599  and  _600
REMARK  180  A    between atoms: _600  and  _601
REMARK  181  A    between atoms: _600  and  _603
REMARK  182  A    between atoms: _603  and  _604
REMARK  183  A    between atoms: _610  and  _611
REMARK  184  A    between atoms: _611  and  _612
REMARK  185  A    between atoms: _611  and  _614
REMARK  186  A    between atoms: _614  and  _615
REMARK  187  A    between atoms: _622  and  _623
REMARK  188  A    between atoms: _623  and  _624
REMARK  189  A    between atoms: _623  and  _626
REMARK  190  A    between atoms: _632  and  _633
REMARK  191  A    between atoms: _633  and  _634
REMARK  192  A    between atoms: _633  and  _636
REMARK  193  A    between atoms: _636  and  _637
REMARK  194  A    between atoms: _637  and  _638
REMARK  195  A    between atoms: _637  and  _639
REMARK  196  A    between atoms: _651  and  _652
REMARK  197  A    between atoms: _652  and  _653
REMARK  198  A    between atoms: _652  and  _655
REMARK  199  A    between atoms: _655  and  _656
REMARK  200  A    between atoms: _663  and  _664
REMARK  201  A    between atoms: _664  and  _665
REMARK  202  A    between atoms: _664  and  _667
REMARK  203  A    between atoms: _667  and  _668
REMARK  204  A    between atoms: _668  and  _669
REMARK  205  A    between atoms: _669  and  _670
REMARK  206  A    between atoms: _670  and  _671
REMARK  207  A    between atoms: _685  and  _686
REMARK  208  A    between atoms: _686  and  _687
REMARK  209  A    between atoms: _686  and  _689
REMARK  210  A    between atoms: _689  and  _690
REMARK  211  A    between atoms: _689  and  _691
REMARK  212  A    between atoms: _690  and  _692
REMARK  213  A    between atoms: _704  and  _705
REMARK  214  A    between atoms: _705  and  _706
REMARK  215  A    between atoms: _705  and  _708
REMARK  216  A    between atoms: _708  and  _709
REMARK  217  A    between atoms: _709  and  _710
REMARK  218  A    between atoms: _710  and  _711
REMARK  219  A    between atoms: _728  and  _729
REMARK  220  A    between atoms: _729  and  _730
REMARK  221  A    between atoms: _729  and  _732
REMARK  222  A    between atoms: _732  and  _733
REMARK  223  A    between atoms: _738  and  _739
REMARK  224  A    between atoms: _749  and  _750
REMARK  225  A    between atoms: _750  and  _751
REMARK  226  A    between atoms: _750  and  _753
REMARK  227  A    between atoms: _753  and  _754
REMARK  228  A    between atoms: _754  and  _755
REMARK  229  A    between atoms: _764  and  _765
REMARK  230  A    between atoms: _765  and  _766
REMARK  231  A    between atoms: _765  and  _768
REMARK  232  A    between atoms: _772  and  _773
REMARK  233  A    between atoms: _773  and  _774
REMARK  234  A    between atoms: _773  and  _776
REMARK  235  A    between atoms: _776  and  _777
REMARK  236  A    between atoms: _777  and  _778
REMARK  237  A    between atoms: _777  and  _779
REMARK  238  A    between atoms: _791  and  _792
REMARK  239  A    between atoms: _792  and  _793
REMARK  240  A    between atoms: _792  and  _795
REMARK  241  A    between atoms: _795  and  _796
REMARK  242  A    between atoms: _795  and  _797
REMARK  243  A    between atoms: _805  and  _806
REMARK  244  A    between atoms: _806  and  _807
REMARK  245  A    between atoms: _806  and  _809
REMARK  246  A    between atoms: _809  and  _810
REMARK  247  A    between atoms: _818  and  _819
REMARK  248  A    between atoms: _831  and  _832
REMARK  249  A    between atoms: _832  and  _833
REMARK  250  A    between atoms: _832  and  _835
REMARK  251  A    between atoms: _835  and  _836
REMARK  252  A    between atoms: _842  and  _843
REMARK  253  A    between atoms: _843  and  _844
REMARK  254  A    between atoms: _843  and  _846
REMARK  255  A    between atoms: _846  and  _847
REMARK  256  A    between atoms: _847  and  _848
REMARK  257  A    between atoms: _848  and  _849
REMARK  258  A    between atoms: _849  and  _850
REMARK  259  A    between atoms: _864  and  _865
REMARK  260  A    between atoms: _865  and  _866
REMARK  261  A    between atoms: _865  and  _868
REMARK  262  A    between atoms: _868  and  _869
REMARK  263  A    between atoms: _869  and  _870
REMARK  264  A    between atoms: _869  and  _871
REMARK  265  A    between atoms: _883  and  _884
REMARK  266  A    between atoms: _884  and  _885
REMARK  267  A    between atoms: _884  and  _887
REMARK  268  A    between atoms: _887  and  _888
REMARK  269  A    between atoms: _895  and  _896
REMARK  270  A    between atoms: _896  and  _897
REMARK  271  A    between atoms: _896  and  _899
REMARK  272  A    between atoms: _899  and  _900
REMARK  273  A    between atoms: _906  and  _907
REMARK  274  A    between atoms: _907  and  _908
REMARK  275  A    between atoms: _913  and  _914
REMARK  276  A    between atoms: _914  and  _915
REMARK  277  A    between atoms: _914  and  _917
REMARK  278  A    between atoms: _917  and  _918
REMARK  279  A    between atoms: _918  and  _919
REMARK  280  A    between atoms: _919  and  _920
REMARK  281  A    between atoms: _920  and  _921
REMARK  282  A    between atoms: _935  and  _936
REMARK  283  A    between atoms: _936  and  _937
REMARK  284  A    between atoms: _936  and  _939
REMARK  285  A    between atoms: _939  and  _940
REMARK  286  A    between atoms: _940  and  _941
REMARK  287  A    between atoms: _950  and  _951
REMARK  288  A    between atoms: _951  and  _952
REMARK  289  A    between atoms: _951  and  _954
REMARK  290  A    between atoms: _954  and  _955
REMARK  291  A    between atoms: _955  and  _956
REMARK  292  A    between atoms: _955  and  _957
REMARK  293  A    between atoms: _969  and  _970
REMARK  294  A    between atoms: _970  and  _971
REMARK  295  A    between atoms: _970  and  _973
REMARK  296  A    between atoms: _973  and  _974
REMARK  297  A    between atoms: _986  and  _987
REMARK  298  A    between atoms: _987  and  _988
REMARK  299  A    between atoms: _987  and  _990
REMARK  300  A    between atoms: _990  and  _991
REMARK  301  A    between atoms: _990  and  _992
REMARK  302  A    between atoms: _991  and  _993
REMARK  303  A    between atoms: _1005  and  _1006
REMARK  304  A    between atoms: _1006  and  _1007
REMARK  305  A    between atoms: _1006  and  _1009
REMARK  306  A    between atoms: _1009  and  _1010
REMARK  307  A    between atoms: _1019  and  _1020
REMARK  308  A    between atoms: _1020  and  _1021
REMARK  309  A    between atoms: _1020  and  _1023
REMARK  310  A    between atoms: _1023  and  _1024
REMARK  311  A    between atoms: _1024  and  _1025
REMARK  312  A    between atoms: _1024  and  _1026
REMARK  313  A    between atoms: _1038  and  _1039
REMARK  314  A    between atoms: _1039  and  _1040
REMARK  315  A    between atoms: _1039  and  _1042
REMARK  316  A    between atoms: _1042  and  _1043
REMARK  317  A    between atoms: _1042  and  _1044
REMARK  318  A    between atoms: _1043  and  _1045
REMARK  319  A    between atoms: _1058  and  _1059
REMARK  320  A    between atoms: _1071  and  _1072
REMARK  321  A    between atoms: _1072  and  _1073
REMARK  322  A    between atoms: _1072  and  _1075
REMARK  323  A    between atoms: _1075  and  _1076
REMARK  324  A    between atoms: _1085  and  _1086
REMARK  325  A    between atoms: _1086  and  _1087
REMARK  326  A    between atoms: _1086  and  _1089
REMARK  327  A    between atoms: _1089  and  _1090
REMARK  328  A    between atoms: _1090  and  _1091
REMARK  329  A    between atoms: _1091  and  _1092
REMARK  330  A    between atoms: _1092  and  _1093
REMARK  331  A    between atoms: _1107  and  _1108
REMARK  332  A    between atoms: _1108  and  _1109
REMARK  333  A    between atoms: _1108  and  _1111
REMARK  334  A    between atoms: _1111  and  _1112
REMARK  335  A    between atoms: _1112  and  _1113
REMARK  336  A    between atoms: _1124  and  _1125
REMARK  337  A    between atoms: _1125  and  _1126
REMARK  338  A    between atoms: _1125  and  _1128
REMARK  339  A    between atoms: _1128  and  _1129
REMARK  340  A    between atoms: _1136  and  _1137
REMARK  341  A    between atoms: _1137  and  _1138
REMARK  342  A    between atoms: _1137  and  _1140
REMARK  343  A    between atoms: _1140  and  _1141
REMARK  344  A    between atoms: _1141  and  _1142
REMARK  345  A    between atoms: _1142  and  _1143
REMARK  346  A    between atoms: _1160  and  _1161
REMARK  347  A    between atoms: _1161  and  _1162
REMARK  348  A    between atoms: _1161  and  _1164
REMARK  349  A    between atoms: _1164  and  _1165
REMARK  350  A    between atoms: _1164  and  _1166
REMARK  351  A    between atoms: _1174  and  _1175
REMARK  352  A    between atoms: _1175  and  _1176
REMARK  353  A    between atoms: _1175  and  _1178
REMARK  354  A    between atoms: _1178  and  _1179
REMARK  355  A    between atoms: _1179  and  _1180
REMARK  356  A    between atoms: _1179  and  _1181
REMARK  357  A    between atoms: _1193  and  _1194
REMARK  358  A    between atoms: _1194  and  _1195
REMARK  359  A    between atoms: _1194  and  _1197
REMARK  360  A    between atoms: _1197  and  _1198
REMARK  361  A    between atoms: _1197  and  _1199
REMARK  362  A    between atoms: _1207  and  _1208
REMARK  363  A    between atoms: _1208  and  _1209
REMARK  364  A    between atoms: _1208  and  _1211
REMARK  365  A    between atoms: _1211  and  _1212
REMARK  366  A    between atoms: _1211  and  _1213
REMARK  367  A    between atoms: _1212  and  _1214
REMARK  368  A    between atoms: _1226  and  _1227
REMARK  369  A    between atoms: _1227  and  _1228
REMARK  370  A    between atoms: _1227  and  _1230
REMARK  371  A    between atoms: _1230  and  _1231
REMARK  372  A    between atoms: _1230  and  _1232
REMARK  373  A    between atoms: _1242  and  _1243
REMARK  374  A    between atoms: _1243  and  _1244
REMARK  375  A    between atoms: _1243  and  _1246
REMARK  376  A    between atoms: _1246  and  _1247
REMARK  377  A    between atoms: _1254  and  _1255
REMARK  378  A    between atoms: _1255  and  _1256
REMARK  379  A    between atoms: _1255  and  _1258
REMARK  380  A    between atoms: _1258  and  _1259
REMARK  381  A    between atoms: _1258  and  _1260
REMARK  382  A    between atoms: _1268  and  _1269
REMARK  383  A    between atoms: _1269  and  _1270
REMARK  384  A    between atoms: _1275  and  _1276
REMARK  385  A    between atoms: _1276  and  _1277
REMARK  386  A    between atoms: _1276  and  _1279
REMARK  387  A    between atoms: _1279  and  _1280
REMARK  388  A    between atoms: _1279  and  _1281
REMARK  389  A    between atoms: _1280  and  _1282
REMARK  390  A    between atoms: _1294  and  _1295
REMARK  391  A    between atoms: _1295  and  _1296
REMARK  392  A    between atoms: _1301  and  _1302
REMARK  393  A    between atoms: _1302  and  _1303
REMARK  394  A    between atoms: _1302  and  _1305
REMARK  395  A    between atoms: _1305  and  _1306
REMARK  396  A    between atoms: _1306  and  _1307
REMARK  397  A    between atoms: _1307  and  _1308
REMARK  398  A    between atoms: _1318  and  _1319
REMARK  399  A    between atoms: _1319  and  _1320
REMARK  400  A    between atoms: _1319  and  _1322
REMARK  401  A    between atoms: _1322  and  _1323
REMARK  402  A    between atoms: _1322  and  _1324
REMARK  403  A    between atoms: _1332  and  _1333
REMARK  404  A    between atoms: _1333  and  _1334
REMARK  405  A    between atoms: _1333  and  _1336
REMARK  406  A    between atoms: _1336  and  _1337
REMARK  407  A    between atoms: _1337  and  _1338
REMARK  408  A    between atoms: _1338  and  _1339
REMARK  409  A    between atoms: _1339  and  _1340
REMARK  410  A    between atoms: _1354  and  _1355
REMARK  411  A    between atoms: _1355  and  _1356
REMARK  412  A    between atoms: _1355  and  _1358
REMARK  413  A    between atoms: _1364  and  _1365
REMARK  414  A    between atoms: _1365  and  _1366
REMARK  415  A    between atoms: _1365  and  _1368
REMARK  416  A    between atoms: _1368  and  _1369
REMARK  417  A    between atoms: _1376  and  _1377
REMARK  418  A    between atoms: _1377  and  _1378
REMARK  419  A    between atoms: _1377  and  _1380
REMARK  420  A    between atoms: _1380  and  _1381
REMARK  421  A    between atoms: _1381  and  _1382
REMARK  422  A    between atoms: _1381  and  _1383
REMARK  423  A    between atoms: _1395  and  _1396
REMARK  424  A    between atoms: _1396  and  _1399
REMARK  425  A    between atoms: _1399  and  _1400
REMARK  426  A    between atoms: _1399  and  _1401
REMARK  427  A    between atoms: _1400  and  _1402
REMARK  428  A    between atoms: _1422  and  _1425
REMARK  429  A    between atoms: _1424  and  _1428
REMARK  430  A    between atoms: _1425  and  _1427
REMARK  431  A    between atoms: _1443  and  _1444
REMARK  432  A    between atoms: _1443  and  _1446
REMARK  433  A    between atoms: _1446  and  _1447
REMARK  434  A    between atoms: _1457  and  _1458
REMARK  435  A    between atoms: _1458  and  _1459
REMARK  436  A    between atoms: _1458  and  _1461
REMARK  437  A    between atoms: _1461  and  _1462
REMARK  438  A    between atoms: _1462  and  _1463
REMARK  439  A    between atoms: _1462  and  _1464
REMARK  440  A    between atoms: _1476  and  _1477
REMARK  441  A    between atoms: _1477  and  _1478
REMARK  442  A    between atoms: _1483  and  _1484
REMARK  443  A    between atoms: _1484  and  _1485
REMARK  444  A    between atoms: _1484  and  _1487
REMARK  445  A    between atoms: _1487  and  _1488
REMARK  446  A    between atoms: _1487  and  _1489
REMARK  447  A    between atoms: _1497  and  _1498
REMARK  448  A    between atoms: _1498  and  _1499
REMARK  449  A    between atoms: _1498  and  _1501
REMARK  450  A    between atoms: _1501  and  _1502
REMARK  451  A    between atoms: _1501  and  _1503
REMARK  452  A    between atoms: _1502  and  _1504
REMARK  453  A    between atoms: _1516  and  _1517
REMARK  454  A    between atoms: _1517  and  _1518
REMARK  455  A    between atoms: _1517  and  _1520
REMARK  456  A    between atoms: _1526  and  _1527
REMARK  457  A    between atoms: _1527  and  _1528
REMARK  458  A    between atoms: _1527  and  _1530
REMARK  459  A    between atoms: _1530  and  _1531
REMARK  460  A    between atoms: _1531  and  _1532
REMARK  461  A    between atoms: _1532  and  _1533
REMARK  462  A    between atoms: _1533  and  _1534
REMARK  463  A    between atoms: _1548  and  _1549
REMARK  464  A    between atoms: _1549  and  _1550
REMARK  465  A    between atoms: _1549  and  _1552
REMARK  466  A    between atoms: _1552  and  _1553
REMARK  467  A    between atoms: _1559  and  _1560
REMARK  468  A    between atoms: _1560  and  _1561
REMARK  469  A    between atoms: _1566  and  _1567
REMARK  470  A    between atoms: _1567  and  _1568
REMARK  471  A    between atoms: _1567  and  _1570
REMARK  472  A    between atoms: _1570  and  _1571
REMARK  473  A    between atoms: _1570  and  _1572
REMARK  474  A    between atoms: _1580  and  _1581
REMARK  475  A    between atoms: _1581  and  _1582
REMARK  476  A    between atoms: _1581  and  _1584
REMARK  477  A    between atoms: _1584  and  _1585
REMARK  478  A    between atoms: _1585  and  _1586
REMARK  479  A    between atoms: _1586  and  _1587
REMARK  480  A    between atoms: _1587  and  _1588
REMARK  481  A    between atoms: _1602  and  _1603
REMARK  482  A    between atoms: _1603  and  _1604
REMARK  483  A    between atoms: _1603  and  _1606
REMARK  484  A    between atoms: _1612  and  _1613
REMARK  485  A    between atoms: _1613  and  _1614
REMARK  486  A    between atoms: _1613  and  _1616
REMARK  487  A    between atoms: _1616  and  _1617
REMARK  488  A    between atoms: _1632  and  _1633
REMARK  489  A    between atoms: _1633  and  _1634
REMARK  490  A    between atoms: _1633  and  _1636
REMARK  491  A    between atoms: _1636  and  _1637
REMARK  492  A    between atoms: _1637  and  _1638
REMARK  493  A    between atoms: _1638  and  _1639
REMARK  494  A    between atoms: _1649  and  _1650
REMARK  495  A    between atoms: _1650  and  _1651
REMARK  496  A    between atoms: _1650  and  _1653
REMARK  497  A    between atoms: _1653  and  _1654
REMARK  498  A    between atoms: _1654  and  _1655
REMARK  499  A    between atoms: _1664  and  _1665
REMARK  500  A    between atoms: _1665  and  _1666
REMARK  501  A    between atoms: _1665  and  _1668
REMARK  502  A    between atoms: _1674  and  _1675
REMARK  503  A    between atoms: _1675  and  _1676
REMARK  504  A    between atoms: _1675  and  _1678
REMARK  505  A    between atoms: _1678  and  _1679
REMARK  506  A    between atoms: _1679  and  _1680
REMARK  507  A    between atoms: _1679  and  _1681
REMARK  508  A    between atoms: _1693  and  _1694
REMARK  509  A    between atoms: _1694  and  _1695
REMARK  510  A    between atoms: _1694  and  _1697
REMARK  511  A    between atoms: _1697  and  _1698
REMARK  512  A    between atoms: _1698  and  _1699
REMARK  513  A    between atoms: _1710  and  _1711
REMARK  514  A    between atoms: _1711  and  _1712
REMARK  515  A    between atoms: _1711  and  _1714
REMARK  516  A    between atoms: _1720  and  _1721
REMARK  517  A    between atoms: _1721  and  _1722
REMARK  518  A    between atoms: _1727  and  _1728
REMARK  519  A    between atoms: _1728  and  _1729
REMARK  520  A    between atoms: _1728  and  _1731
REMARK  521  A    between atoms: _1737  and  _1738
REMARK  522  A    between atoms: _1738  and  _1739
REMARK  523  A    between atoms: _1738  and  _1741
REMARK  524  A    between atoms: _1741  and  _1742
REMARK  525  A    between atoms: _1749  and  _1750
REMARK  526  A    between atoms: _1750  and  _1751
REMARK  527  A    between atoms: _1750  and  _1753
REMARK  528  A    between atoms: _1753  and  _1754
REMARK  529  A    between atoms: _1753  and  _1755
REMARK  530  A    between atoms: _1754  and  _1756
REMARK  531  A    between atoms: _1768  and  _1769
REMARK  532  A    between atoms: _1769  and  _1772
REMARK  533  A    between atoms: _1772  and  _1773
REMARK  534  A    between atoms: _1791  and  _1793
REMARK  535  A    between atoms: _1792  and  _1794
REMARK  536  A    between atoms: _1814  and  _1815
REMARK  537  A    between atoms: _1814  and  _1817
REMARK  538  A    between atoms: _1817  and  _1818
REMARK  539  A    between atoms: _1817  and  _1819
REMARK  540  A    between atoms: _1818  and  _1820
REMARK  541  A    between atoms: _1833  and  _1834
REMARK  542  A    between atoms: _1834  and  _1835
REMARK  543  A    between atoms: _1840  and  _1841
REMARK  544  A    between atoms: _1841  and  _1842
REMARK  545  A    between atoms: _1841  and  _1844
REMARK  546  A    between atoms: _1844  and  _1845
REMARK  547  A    between atoms: _1845  and  _1846
REMARK  548  A    between atoms: _1857  and  _1858
REMARK  549  A    between atoms: _1858  and  _1859
REMARK  550  A    between atoms: _1858  and  _1861
REMARK  551  A    between atoms: _1861  and  _1862
REMARK  552  A    between atoms: _1877  and  _1878
REMARK  553  A    between atoms: _1878  and  _1879
REMARK  554  A    between atoms: _1884  and  _1885
REMARK  555  A    between atoms: _1885  and  _1886
REMARK  556  A    between atoms: _1885  and  _1888
REMARK  557  A    between atoms: _1888  and  _1889
REMARK  558  A    between atoms: _1888  and  _1890
REMARK  559  A    between atoms: _1900  and  _1901
REMARK  560  A    between atoms: _1901  and  _1902
REMARK  561  A    between atoms: _1907  and  _1908
REMARK  562  A    between atoms: _1908  and  _1909
REMARK  563  A    between atoms: _1908  and  _1911
REMARK  564  A    between atoms: _1911  and  _1912
REMARK  565  A    between atoms: _1927  and  _1928
REMARK  566  A    between atoms: _1928  and  _1929
REMARK  567  A    between atoms: _1928  and  _1931
REMARK  568  A    between atoms: _1931  and  _1932
REMARK  569  A    between atoms: _1937  and  _1938
REMARK  570  A    between atoms: _1948  and  _1949
REMARK  571  A    between atoms: _1949  and  _1950
REMARK  572  A    between atoms: _1949  and  _1952
REMARK  573  A    between atoms: _1952  and  _1953
REMARK  574  A    between atoms: _1959  and  _1960
REMARK  575  A    between atoms: _1960  and  _1961
REMARK  576  A    between atoms: _1960  and  _1963
REMARK  577  A    between atoms: _1969  and  _1970
REMARK  578  A    between atoms: _1970  and  _1971
REMARK  579  A    between atoms: _1970  and  _1973
REMARK  580  A    between atoms: _1973  and  _1974
REMARK  581  A    between atoms: _1979  and  _1980
REMARK  582  A    between atoms: _1990  and  _1991
REMARK  583  A    between atoms: _1991  and  _1992
REMARK  584  A    between atoms: _1991  and  _1994
REMARK  585  A    between atoms: _1994  and  _1995
REMARK  586  A    between atoms: _1995  and  _1996
REMARK  587  A    between atoms: _1995  and  _1997
REMARK  588  A    between atoms: _2009  and  _2010
REMARK  589  A    between atoms: _2010  and  _2011
REMARK  590  A    between atoms: _2010  and  _2013
REMARK  591  A    between atoms: _2013  and  _2014
REMARK  592  A    between atoms: _2013  and  _2015
REMARK  593  A    between atoms: _2025  and  _2026
REMARK  594  A    between atoms: _2026  and  _2027
REMARK  595  A    between atoms: _2026  and  _2029
REMARK  596  A    between atoms: _2035  and  _2036
REMARK  597  A    between atoms: _2036  and  _2037
REMARK  598  A    between atoms: _2036  and  _2039
REMARK  599  A    between atoms: _2039  and  _2040
REMARK  600  A    between atoms: _2040  and  _2041
REMARK  601  A    between atoms: _2050  and  _2051
REMARK  602  A    between atoms: _2051  and  _2052
REMARK  603  A    between atoms: _2051  and  _2054
REMARK  604  A    between atoms: _2054  and  _2055
REMARK  605  A    between atoms: _2055  and  _2056
REMARK  606  A    between atoms: _2056  and  _2057
REMARK  607  A    between atoms: _2057  and  _2058
REMARK  608  A    between atoms: _2072  and  _2073
REMARK  609  A    between atoms: _2073  and  _2074
REMARK  610  A    between atoms: _2073  and  _2076
REMARK  611  A    between atoms: _2076  and  _2077
REMARK  612  A    between atoms: _2076  and  _2078
REMARK  613  A    between atoms: _2088  and  _2089
REMARK  614  A    between atoms: _2089  and  _2090
REMARK  615  A    between atoms: _2089  and  _2092
REMARK  616  A    between atoms: _2092  and  _2093
REMARK  617  A    between atoms: _2092  and  _2094
REMARK  618  A    between atoms: _2102  and  _2103
REMARK  619  A    between atoms: _2103  and  _2104
REMARK  620  A    between atoms: _2103  and  _2106
REMARK  621  A    between atoms: _2106  and  _2107
REMARK  622  A    between atoms: _2106  and  _2108
REMARK  623  A    between atoms: _2118  and  _2119
REMARK  624  A    between atoms: _2119  and  _2120
REMARK  625  A    between atoms: _2119  and  _2122
REMARK  626  A    between atoms: _2122  and  _2123
REMARK  627  A    between atoms: _2122  and  _2124
REMARK  628  A    between atoms: _2123  and  _2125
REMARK  629  A    between atoms: _2137  and  _2138
REMARK  630  A    between atoms: _2138  and  _2139
REMARK  631  A    between atoms: _2138  and  _2141
REMARK  632  A    between atoms: _2141  and  _2142
REMARK  633  A    between atoms: _2141  and  _2143
REMARK  634  A    between atoms: _2151  and  _2152
REMARK  635  A    between atoms: _2152  and  _2153
REMARK  636  A    between atoms: _2152  and  _2155
REMARK  637  A    between atoms: _2155  and  _2156
REMARK  638  A    between atoms: _2156  and  _2157
REMARK  639  A    between atoms: _2157  and  _2158
REMARK  640  A    between atoms: _2158  and  _2159
REMARK  641  A    between atoms: _2173  and  _2174
REMARK  642  A    between atoms: _2174  and  _2175
REMARK  643  A    between atoms: _2174  and  _2177
REMARK  644  A    between atoms: _2177  and  _2178
REMARK  645  A    between atoms: _2190  and  _2191
REMARK  646  A    between atoms: _2191  and  _2192
REMARK  647  A    between atoms: _2191  and  _2194
REMARK  648  A    between atoms: _2194  and  _2195
REMARK  649  A    between atoms: _2204  and  _2205
REMARK  650  A    between atoms: _2205  and  _2206
REMARK  651  A    between atoms: _2205  and  _2208
REMARK  652  A    between atoms: _2208  and  _2209
REMARK  653  A    between atoms: _2216  and  _2217
REMARK  654  A    between atoms: _2217  and  _2218
REMARK  655  A    between atoms: _2217  and  _2220
REMARK  656  A    between atoms: _2220  and  _2221
REMARK  657  A    between atoms: _2228  and  _2229
REMARK  658  A    between atoms: _2229  and  _2230
REMARK  659  A    between atoms: _2229  and  _2232
REMARK  660  A    between atoms: _2232  and  _2233
REMARK  661  A    between atoms: _2233  and  _2234
REMARK  662  A    between atoms: _2243  and  _2244
REMARK  663  A    between atoms: _2244  and  _2245
REMARK  664  A    between atoms: _2244  and  _2247
REMARK  665  A    between atoms: _2247  and  _2248
REMARK  666  A    between atoms: _2248  and  _2249
REMARK  667  A    between atoms: _2260  and  _2261
REMARK  668  A    between atoms: _2261  and  _2262
REMARK  669  A    between atoms: _2261  and  _2264
REMARK  670  A    between atoms: _2264  and  _2265
REMARK  671  A    between atoms: _2270  and  _2271
REMARK  672  A    between atoms: _2281  and  _2282
REMARK  673  A    between atoms: _2282  and  _2283
REMARK  674  A    between atoms: _2282  and  _2285
REMARK  675  A    between atoms: _2291  and  _2292
REMARK  676  A    between atoms: _2292  and  _2293
REMARK  677  A    between atoms: _2292  and  _2295
REMARK  678  A    between atoms: _2295  and  _2296
REMARK  679  A    between atoms: _2315  and  _2316
REMARK  680  A    between atoms: _2316  and  _2317
REMARK  681  A    between atoms: _2316  and  _2319
REMARK  682  A    between atoms: _2319  and  _2320
REMARK  683  A    between atoms: _2320  and  _2321
REMARK  684  A    between atoms: _2330  and  _2331
REMARK  685  A    between atoms: _2331  and  _2332
REMARK  686  A    between atoms: _2331  and  _2334
REMARK  687  A    between atoms: _2334  and  _2335
REMARK  688  A    between atoms: _2341  and  _2342
REMARK  689  A    between atoms: _2342  and  _2343
REMARK  690  A    between atoms: _2342  and  _2345
REMARK  691  A    between atoms: _2345  and  _2346
REMARK  692  A    between atoms: _2352  and  _2353
REMARK  693  A    between atoms: _2353  and  _2354
REMARK  694  A    between atoms: _2353  and  _2356
REMARK  695  A    between atoms: _2362  and  _2363
REMARK  696  A    between atoms: _2363  and  _2364
REMARK  697  A    between atoms: _2369  and  _2370
REMARK  698  A    between atoms: _2370  and  _2371
REMARK  699  A    between atoms: _2376  and  _2377
REMARK  700  A    between atoms: _2377  and  _2378
REMARK  701  A    between atoms: _2377  and  _2380
REMARK  702  A    between atoms: _2380  and  _2381
REMARK  703  A    between atoms: _2387  and  _2388
REMARK  704  A    between atoms: _2388  and  _2389
REMARK  705  A    between atoms: _2388  and  _2391
REMARK  706  A    between atoms: _2391  and  _2392
REMARK  707  A    between atoms: _2407  and  _2408
REMARK  708  A    between atoms: _2408  and  _2409
REMARK  709  A    between atoms: _2408  and  _2411
REMARK  710  A    between atoms: _2411  and  _2412
REMARK  711  A    between atoms: _2411  and  _2413
REMARK  712  A    between atoms: _2421  and  _2422
REMARK  713  A    between atoms: _2422  and  _2423
REMARK  714  A    between atoms: _2422  and  _2425
REMARK  715  A    between atoms: _2425  and  _2426
REMARK  716  A    between atoms: _2425  and  _2427
REMARK  717  A    between atoms: _2437  and  _2438
REMARK  718  A    between atoms: _2438  and  _2439
REMARK  719  A    between atoms: _2438  and  _2441
REMARK  720  A    between atoms: _2441  and  _2442
REMARK  721  A    between atoms: _2442  and  _2443
REMARK  722  A    between atoms: _2443  and  _2444
REMARK  723  A    between atoms: _2461  and  _2462
REMARK  724  A    between atoms: _2462  and  _2463
REMARK  725  A    between atoms: _2462  and  _2465
REMARK  726  A    between atoms: _2465  and  _2466
REMARK  727  A    between atoms: _2465  and  _2467
REMARK  728  A    between atoms: _2475  and  _2476
REMARK  729  A    between atoms: _2476  and  _2477
REMARK  730  A    between atoms: _2476  and  _2479
REMARK  731  A    between atoms: _2479  and  _2480
REMARK  732  A    between atoms: _2487  and  _2488
REMARK  733  A    between atoms: _2488  and  _2489
REMARK  734  A    between atoms: _2488  and  _2491
REMARK  735  A    between atoms: _2491  and  _2492
REMARK  736  A    between atoms: _2491  and  _2493
REMARK  737  A    between atoms: _2501  and  _2502
REMARK  738  A    between atoms: _2502  and  _2503
REMARK  739  A    between atoms: _2508  and  _2509
REMARK  740  A    between atoms: _2509  and  _2510
REMARK  741  A    between atoms: _2509  and  _2512
REMARK  742  A    between atoms: _2512  and  _2513
REMARK  743  A    between atoms: _2513  and  _2514
REMARK  744  A    between atoms: _2524  and  _2525
REMARK  745  A    between atoms: _2537  and  _2538
REMARK  746  A    between atoms: _2538  and  _2539
REMARK  747  A    between atoms: _2538  and  _2541
REMARK  748  A    between atoms: _2541  and  _2542
REMARK  749  A    between atoms: _2542  and  _2543
REMARK  750  A    between atoms: _2543  and  _2544
REMARK  751  A    between atoms: _2554  and  _2555
REMARK  752  A    between atoms: _2555  and  _2556
REMARK  753  A    between atoms: _2561  and  _2562
REMARK  754  A    between atoms: _2562  and  _2563
REMARK  755  A    between atoms: _2562  and  _2565
REMARK  756  A    between atoms: _2565  and  _2566
REMARK  757  A    between atoms: _2566  and  _2567
REMARK  758  A    between atoms: _2567  and  _2568
REMARK  759  A    between atoms: _2585  and  _2586
REMARK  760  A    between atoms: _2586  and  _2587
REMARK  761  A    between atoms: _2592  and  _2593
REMARK  762  A    between atoms: _2593  and  _2594
REMARK  763  A    between atoms: _2593  and  _2596
REMARK  764  A    between atoms: _2596  and  _2597
REMARK  765  A    between atoms: _2596  and  _2598
REMARK  766  A    between atoms: _2606  and  _2607
REMARK  767  A    between atoms: _2607  and  _2608
REMARK  768  A    between atoms: _2607  and  _2610
REMARK  769  A    between atoms: _2610  and  _2611
REMARK  770  A    between atoms: _2611  and  _2612
REMARK  771  A    between atoms: _2612  and  _2613
REMARK  772  A    between atoms: _2613  and  _2614
REMARK  773  A    between atoms: _2628  and  _2629
REMARK  774  A    between atoms: _2629  and  _2630
REMARK  775  A    between atoms: _2629  and  _2632
REMARK  776  A    between atoms: _2632  and  _2633
REMARK  777  A    between atoms: _2632  and  _2634
REMARK  778  A    between atoms: _2644  and  _2645
REMARK  779  A    between atoms: _2645  and  _2646
REMARK  780  A    between atoms: _2645  and  _2648
REMARK  781  A    between atoms: _2648  and  _2649
REMARK  782  A    between atoms: _2648  and  _2650
REMARK  783  A    between atoms: _2649  and  _2651
REMARK  784  A    between atoms: _2663  and  _2664
REMARK  785  A    between atoms: _2664  and  _2665
REMARK  786  A    between atoms: _2664  and  _2667
REMARK  787  A    between atoms: _2667  and  _2668
REMARK  788  A    between atoms: _2668  and  _2669
REMARK  789  A    between atoms: _2668  and  _2670
REMARK  790  A    between atoms: _2682  and  _2683
REMARK  791  A    between atoms: _2683  and  _2684
REMARK  792  A    between atoms: _2683  and  _2686
REMARK  793  A    between atoms: _2686  and  _2687
REMARK  794  A    between atoms: _2699  and  _2700
REMARK  795  A    between atoms: _2700  and  _2701
REMARK  796  A    between atoms: _2700  and  _2703
REMARK  797  A    between atoms: _2703  and  _2704
REMARK  798  A    between atoms: _2704  and  _2705
REMARK  799  A    between atoms: _2704  and  _2706
REMARK  800  A    between atoms: _2718  and  _2719
REMARK  801  A    between atoms: _2719  and  _2720
REMARK  802  A    between atoms: _2719  and  _2722
REMARK  803  A    between atoms: _2722  and  _2723
REMARK  804  A    between atoms: _2723  and  _2724
REMARK  805  A    between atoms: _2724  and  _2725
REMARK  806  A    between atoms: _2725  and  _2726
REMARK  807  A    between atoms: _2740  and  _2741
REMARK  808  A    between atoms: _2741  and  _2742
REMARK  809  A    between atoms: _2741  and  _2744
REMARK  810  A    between atoms: _2744  and  _2745
REMARK  811  A    between atoms: _2745  and  _2746
REMARK  812  A    between atoms: _2755  and  _2756
REMARK  813  A    between atoms: _2756  and  _2757
REMARK  814  A    between atoms: _2756  and  _2759
REMARK  815  A    between atoms: _2759  and  _2760
REMARK  816  A    between atoms: _2767  and  _2768
REMARK  817  A    between atoms: _2768  and  _2769
REMARK  818  A    between atoms: _2768  and  _2771
REMARK  819  A    between atoms: _2771  and  _2772
REMARK  820  A    between atoms: _2772  and  _2773
REMARK  821  A    between atoms: _2784  and  _2785
REMARK  822  A    between atoms: _2785  and  _2786
REMARK  823  A    between atoms: _2785  and  _2788
REMARK  824  A    between atoms: _2788  and  _2789
REMARK  825  A    between atoms: _2788  and  _2790
REMARK  826  A    between atoms: _2798  and  _2799
REMARK  827  A    between atoms: _2799  and  _2800
REMARK  828  A    between atoms: _2799  and  _2802
REMARK  829  A    between atoms: _2802  and  _2803
REMARK  830  A    between atoms: _2803  and  _2804
REMARK  831  A    between atoms: _2813  and  _2814
REMARK  832  A    between atoms: _2814  and  _2815
REMARK  833  A    between atoms: _2814  and  _2817
REMARK  834  A    between atoms: _2817  and  _2818
REMARK  835  A    between atoms: _2823  and  _2824
REMARK  836  A    between atoms: _2834  and  _2835
REMARK  837  A    between atoms: _2835  and  _2838
REMARK  838  A    between atoms: _2838  and  _2839
REMARK  839  A    between atoms: _2839  and  _2840
REMARK  840  A    between atoms: _2839  and  _2841
REMARK  841  A    between atoms: _2884  and  _2885
REMARK  842  A    between atoms: _2884  and  _2887
REMARK  843  A    between atoms: _2887  and  _2888
REMARK  844  A    between atoms: _2888  and  _2889
REMARK  845  A    between atoms: _2899  and  _2900
REMARK  846  A    between atoms: _2900  and  _2901
REMARK  847  A    between atoms: _2900  and  _2903
REMARK  848  A    between atoms: _2903  and  _2904
REMARK  849  A    between atoms: _2904  and  _2905
REMARK  850  A    between atoms: _2905  and  _2906
REMARK  851  A    between atoms: _2923  and  _2924
REMARK  852  A    between atoms: _2924  and  _2925
REMARK  853  A    between atoms: _2924  and  _2927
REMARK  854  A    between atoms: _2927  and  _2928
REMARK  855  A    between atoms: _2928  and  _2929
REMARK  856  A    between atoms: _2929  and  _2930
REMARK  857  A    between atoms: _2947  and  _2948
REMARK  858  A    between atoms: _2948  and  _2949
REMARK  859  A    between atoms: _2948  and  _2951
REMARK  860  A    between atoms: _2951  and  _2952
REMARK  861  A    between atoms: _2951  and  _2953
REMARK  862  A    between atoms: _2952  and  _2954
REMARK  863  A    between atoms: _2966  and  _2967
REMARK  864  A    between atoms: _2967  and  _2968
REMARK  865  A    between atoms: _2967  and  _2970
REMARK  866  A    between atoms: _2970  and  _2971
REMARK  867  A    between atoms: _2971  and  _2972
REMARK  868  A    between atoms: _2972  and  _2973
REMARK  869  A    between atoms: _2973  and  _2974
REMARK  870  A    between atoms: _2988  and  _2989
REMARK  871  A    between atoms: _2989  and  _2990
REMARK  872  A    between atoms: _2989  and  _2992
REMARK  873  A    between atoms: _2992  and  _2993
REMARK  874  A    between atoms: _2993  and  _2994
REMARK  875  A    between atoms: _3003  and  _3004
REMARK  876  A    between atoms: _3004  and  _3005
REMARK  877  A    between atoms: _3004  and  _3007
REMARK  878  A    between atoms: _3007  and  _3008
REMARK  879  A    between atoms: _3007  and  _3009
REMARK  880  A    between atoms: _3008  and  _3010
REMARK  881  A    between atoms: _3022  and  _3023
REMARK  882  A    between atoms: _3023  and  _3024
REMARK  883  A    between atoms: _3023  and  _3026
REMARK  884  A    between atoms: _3026  and  _3027
REMARK  885  A    between atoms: _3026  and  _3028
REMARK  886  A    between atoms: _3038  and  _3039
REMARK  887  A    between atoms: _3039  and  _3040
REMARK  888  A    between atoms: _3039  and  _3042
REMARK  889  A    between atoms: _3042  and  _3043
REMARK  890  A    between atoms: _3043  and  _3044
REMARK  891  A    between atoms: _3044  and  _3045
REMARK  892  A    between atoms: _3045  and  _3046
REMARK  893  A    between atoms: _3060  and  _3061
REMARK  894  A    between atoms: _3061  and  _3062
REMARK  895  A    between atoms: _3061  and  _3064
REMARK  896  A    between atoms: _3064  and  _3065
REMARK  897  A    between atoms: _3065  and  _3066
REMARK  898  A    between atoms: _3066  and  _3067
REMARK  899  A    between atoms: _3067  and  _3068
REMARK  900  A    between atoms: _3082  and  _3083
REMARK  901  A    between atoms: _3083  and  _3084
REMARK  902  A    between atoms: _3083  and  _3086
REMARK  903  A    between atoms: _3086  and  _3087
REMARK  904  A    between atoms: _3099  and  _3100
REMARK  905  A    between atoms: _3100  and  _3101
REMARK  906  A    between atoms: _3100  and  _3103
REMARK  907  A    between atoms: _3103  and  _3104
REMARK  908  A    between atoms: _3110  and  _3111
REMARK  909  A    between atoms: _3111  and  _3112
REMARK  910  A    between atoms: _3111  and  _3114
REMARK  911  A    between atoms: _3114  and  _3115
REMARK  912  A    between atoms: _3115  and  _3116
REMARK  913  A    between atoms: _3127  and  _3128
REMARK  914  A    between atoms: _3128  and  _3129
REMARK  915  A    between atoms: _3128  and  _3131
REMARK  916  A    between atoms: _3131  and  _3132
REMARK  917  A    between atoms: _3147  and  _3148
REMARK  918  A    between atoms: _3148  and  _3149
REMARK  919  A    between atoms: _3148  and  _3151
REMARK  920  A    between atoms: _3151  and  _3152
REMARK  921  A    between atoms: _3151  and  _3153
REMARK  922  A    between atoms: _3152  and  _3154
REMARK  923  A    between atoms: _3166  and  _3167
REMARK  924  A    between atoms: _3167  and  _3168
REMARK  925  A    between atoms: _3173  and  _3174
REMARK  926  A    between atoms: _3174  and  _3175
REMARK  927  A    between atoms: _3174  and  _3177
REMARK  928  A    between atoms: _3177  and  _3178
REMARK  929  A    between atoms: _3183  and  _3184
REMARK  930  A    between atoms: _3195  and  _3196
REMARK  931  A    between atoms: _3208  and  _3209
REMARK  932  A    between atoms: _3209  and  _3210
REMARK  933  A    between atoms: _3209  and  _3212
REMARK  934  A    between atoms: _3212  and  _3213
REMARK  935  A    between atoms: _3212  and  _3214
REMARK  936  A    between atoms: _3213  and  _3215
REMARK  937  A    between atoms: _3227  and  _3228
REMARK  938  A    between atoms: _3228  and  _3229
REMARK  939  A    between atoms: _3228  and  _3231
REMARK  940  A    between atoms: _3231  and  _3232
REMARK  941  A    between atoms: _3231  and  _3233
REMARK  942  A    between atoms: _3241  and  _3242
REMARK  943  A    between atoms: _3242  and  _3243
REMARK  944  A    between atoms: _3242  and  _3245
REMARK  945  A    between atoms: _3245  and  _3246
REMARK  946  A    between atoms: _3246  and  _3247
REMARK  947  A    between atoms: _3246  and  _3248
REMARK  948  A    between atoms: _3260  and  _3261
REMARK  949  A    between atoms: _3261  and  _3262
REMARK  950  A    between atoms: _3261  and  _3264
REMARK  951  A    between atoms: _3264  and  _3265
REMARK  952  A    between atoms: _3280  and  _3281
REMARK  953  A    between atoms: _3281  and  _3282
REMARK  954  A    between atoms: _3281  and  _3284
REMARK  955  A    between atoms: _3284  and  _3285
REMARK  956  A    between atoms: _3284  and  _3286
REMARK  957  A    between atoms: _3296  and  _3297
REMARK  958  A    between atoms: _3297  and  _3298
REMARK  959  A    between atoms: _3297  and  _3300
REMARK  960  A    between atoms: _3300  and  _3301
REMARK  961  A    between atoms: _3301  and  _3302
REMARK                            x       y       z     vdW  Elec       q    Type
REMARK                         _______ _______ _______ _____ _____    ______ ____
ROOT
ATOM      1  C   UNL     1      -9.232  17.384  42.977  0.00  0.00    +0.500 C 
ATOM      2  O   UNL     1      -8.564  16.333  43.106  0.00  0.00    -0.250 OA
ATOM      3  O   UNL     1     -10.477  17.392  42.830  0.00  0.00    -0.250 OA
ENDROOT
TORSDOF 0
REMARK  Name = /Users/mlugowska/PhD/ML_residence_time_prediction/protein_files/5J20_protein.pdb
REMARK  961 active torsions:
REMARK  status: ('A' for Active; 'I' for Inactive)
REMARK    1  A    between atoms: _2  and  _3
REMARK    2  A    between atoms: _2  and  _5
REMARK    3  A    between atoms: _10  and  _11
REMARK    4  A    between atoms: _11  and  _12
REMARK    5  A    between atoms: _11  and  _14
REMARK    6  A    between atoms: _14  and  _15
REMARK    7  A    between atoms: _14  and  _16
REMARK    8  A    between atoms: _26  and  _27
REMARK    9  A    between atoms: _27  and  _28
REMARK   10  A    between atoms: _27  and  _30
REMARK   11  A    between atoms: _30  and  _31
REMARK   12  A    between atoms: _31  and  _32
REMARK   13  A    between atoms: _41  and  _42
REMARK   14  A    between atoms: _42  and  _43
REMARK   15  A    between atoms: _42  and  _45
REMARK   16  A    between atoms: _45  and  _46
REMARK   17  A    between atoms: _45  and  _47
REMARK   18  A    between atoms: _55  and  _56
REMARK   19  A    between atoms: _56  and  _57
REMARK   20  A    between atoms: _56  and  _59
REMARK   21  A    between atoms: _59  and  _60
REMARK   22  A    between atoms: _75  and  _76
REMARK   23  A    between atoms: _76  and  _77
REMARK   24  A    between atoms: _76  and  _79
REMARK   25  A    between atoms: _85  and  _86
REMARK   26  A    between atoms: _86  and  _87
REMARK   27  A    between atoms: _86  and  _89
REMARK   28  A    between atoms: _89  and  _90
REMARK   29  A    between atoms: _105  and  _106
REMARK   30  A    between atoms: _106  and  _107
REMARK   31  A    between atoms: _106  and  _109
REMARK   32  A    between atoms: _109  and  _110
REMARK   33  A    between atoms: _110  and  _111
REMARK   34  A    between atoms: _122  and  _123
REMARK   35  A    between atoms: _123  and  _124
REMARK   36  A    between atoms: _123  and  _126
REMARK   37  A    between atoms: _132  and  _133
REMARK   38  A    between atoms: _133  and  _134
REMARK   39  A    between atoms: _133  and  _136
REMARK   40  A    between atoms: _136  and  _137
REMARK   41  A    between atoms: _137  and  _138
REMARK   42  A    between atoms: _147  and  _148
REMARK   43  A    between atoms: _148  and  _149
REMARK   44  A    between atoms: _148  and  _151
REMARK   45  A    between atoms: _151  and  _152
REMARK   46  A    between atoms: _151  and  _153
REMARK   47  A    between atoms: _152  and  _154
REMARK   48  A    between atoms: _166  and  _167
REMARK   49  A    between atoms: _167  and  _168
REMARK   50  A    between atoms: _167  and  _170
REMARK   51  A    between atoms: _176  and  _177
REMARK   52  A    between atoms: _177  and  _178
REMARK   53  A    between atoms: _177  and  _180
REMARK   54  A    between atoms: _180  and  _181
REMARK   55  A    between atoms: _181  and  _182
REMARK   56  A    between atoms: _193  and  _194
REMARK   57  A    between atoms: _194  and  _195
REMARK   58  A    between atoms: _194  and  _197
REMARK   59  A    between atoms: _197  and  _198
REMARK   60  A    between atoms: _198  and  _199
REMARK   61  A    between atoms: _198  and  _200
REMARK   62  A    between atoms: _212  and  _213
REMARK   63  A    between atoms: _213  and  _214
REMARK   64  A    between atoms: _213  and  _216
REMARK   65  A    between atoms: _216  and  _217
REMARK   66  A    between atoms: _217  and  _218
REMARK   67  A    between atoms: _218  and  _219
REMARK   68  A    between atoms: _229  and  _230
REMARK   69  A    between atoms: _230  and  _231
REMARK   70  A    between atoms: _230  and  _233
REMARK   71  A    between atoms: _233  and  _234
REMARK   72  A    between atoms: _240  and  _241
REMARK   73  A    between atoms: _241  and  _242
REMARK   74  A    between atoms: _241  and  _244
REMARK   75  A    between atoms: _244  and  _245
REMARK   76  A    between atoms: _245  and  _246
REMARK   77  A    between atoms: _245  and  _247
REMARK   78  A    between atoms: _259  and  _260
REMARK   79  A    between atoms: _260  and  _261
REMARK   80  A    between atoms: _260  and  _263
REMARK   81  A    between atoms: _263  and  _264
REMARK   82  A    between atoms: _263  and  _265
REMARK   83  A    between atoms: _264  and  _266
REMARK   84  A    between atoms: _278  and  _279
REMARK   85  A    between atoms: _279  and  _280
REMARK   86  A    between atoms: _279  and  _282
REMARK   87  A    between atoms: _282  and  _283
REMARK   88  A    between atoms: _282  and  _284
REMARK   89  A    between atoms: _283  and  _285
REMARK   90  A    between atoms: _297  and  _298
REMARK   91  A    between atoms: _298  and  _299
REMARK   92  A    between atoms: _298  and  _301
REMARK   93  A    between atoms: _301  and  _302
REMARK   94  A    between atoms: _311  and  _312
REMARK   95  A    between atoms: _312  and  _313
REMARK   96  A    between atoms: _312  and  _315
REMARK   97  A    between atoms: _315  and  _316
REMARK   98  A    between atoms: _315  and  _317
REMARK   99  A    between atoms: _325  and  _326
REMARK  100  A    between atoms: _326  and  _327
REMARK  101  A    between atoms: _326  and  _329
REMARK  102  A    between atoms: _329  and  _330
REMARK  103  A    between atoms: _345  and  _346
REMARK  104  A    between atoms: _346  and  _347
REMARK  105  A    between atoms: _346  and  _349
REMARK  106  A    between atoms: _349  and  _350
REMARK  107  A    between atoms: _355  and  _356
REMARK  108  A    between atoms: _366  and  _367
REMARK  109  A    between atoms: _367  and  _368
REMARK  110  A    between atoms: _367  and  _370
REMARK  111  A    between atoms: _370  and  _371
REMARK  112  A    between atoms: _377  and  _378
REMARK  113  A    between atoms: _378  and  _379
REMARK  114  A    between atoms: _378  and  _381
REMARK  115  A    between atoms: _381  and  _382
REMARK  116  A    between atoms: _391  and  _392
REMARK  117  A    between atoms: _392  and  _393
REMARK  118  A    between atoms: _392  and  _395
REMARK  119  A    between atoms: _395  and  _396
REMARK  120  A    between atoms: _396  and  _397
REMARK  121  A    between atoms: _397  and  _398
REMARK  122  A    between atoms: _398  and  _399
REMARK  123  A    between atoms: _413  and  _414
REMARK  124  A    between atoms: _414  and  _415
REMARK  125  A    between atoms: _414  and  _417
REMARK  126  A    between atoms: _417  and  _418
REMARK  127  A    between atoms: _418  and  _419
REMARK  128  A    between atoms: _428  and  _429
REMARK  129  A    between atoms: _429  and  _430
REMARK  130  A    between atoms: _429  and  _432
REMARK  131  A    between atoms: _432  and  _433
REMARK  132  A    between atoms: _432  and  _434
REMARK  133  A    between atoms: _433  and  _435
REMARK  134  A    between atoms: _447  and  _448
REMARK  135  A    between atoms: _448  and  _449
REMARK  136  A    between atoms: _448  and  _451
REMARK  137  A    between atoms: _451  and  _452
REMARK  138  A    between atoms: _467  and  _468
REMARK  139  A    between atoms: _468  and  _469
REMARK  140  A    between atoms: _468  and  _471
REMARK  141  A    between atoms: _471  and  _472
REMARK  142  A    between atoms: _472  and  _473
REMARK  143  A    between atoms: _472  and  _474
REMARK  144  A    between atoms: _486  and  _487
REMARK  145  A    between atoms: _487  and  _488
REMARK  146  A    between atoms: _487  and  _490
REMARK  147  A    between atoms: _490  and  _491
REMARK  148  A    between atoms: _491  and  _492
REMARK  149  A    between atoms: _492  and  _493
REMARK  150  A    between atoms: _510  and  _511
REMARK  151  A    between atoms: _511  and  _512
REMARK  152  A    between atoms: _511  and  _514
REMARK  153  A    between atoms: _514  and  _515
REMARK  154  A    between atoms: _515  and  _516
REMARK  155  A    between atoms: _525  and  _526
REMARK  156  A    between atoms: _526  and  _527
REMARK  157  A    between atoms: _526  and  _529
REMARK  158  A    between atoms: _529  and  _530
REMARK  159  A    between atoms: _530  and  _531
REMARK  160  A    between atoms: _530  and  _532
REMARK  161  A    between atoms: _544  and  _545
REMARK  162  A    between atoms: _545  and  _546
REMARK  163  A    between atoms: _545  and  _548
REMARK  164  A    between atoms: _548  and  _549
REMARK  165  A    between atoms: _548  and  _550
REMARK  166  A    between atoms: _549  and  _551
REMARK  167  A    between atoms: _563  and  _564
REMARK  168  A    between atoms: _564  and  _565
REMARK  169  A    between atoms: _564  and  _567
REMARK  170  A    between atoms: _567  and  _568
REMARK  171  A    between atoms: _574  and  _575
REMARK  172  A    between atoms: _575  and  _576
REMARK  173  A    between atoms: _575  and  _578
REMARK  174  A    between atoms: _578  and  _579
REMARK  175  A    between atoms: _588  and  _589
REMARK  176  A    between atoms: _589  and  _590
REMARK  177  A    between atoms: _589  and  _592
REMARK  178  A    between atoms: _592  and  _593
REMARK  179  A    between atoms: _599  and  _600
REMARK  180  A    between atoms: _600  and  _601
REMARK  181  A    between atoms: _600  and  _603
REMARK  182  A    between atoms: _603  and  _604
REMARK  183  A    between atoms: _610  and  _611
REMARK  184  A    between atoms: _611  and  _612
REMARK  185  A    between atoms: _611  and  _614
REMARK  186  A    between atoms: _614  and  _615
REMARK  187  A    between atoms: _622  and  _623
REMARK  188  A    between atoms: _623  and  _624
REMARK  189  A    between atoms: _623  and  _626
REMARK  190  A    between atoms: _632  and  _633
REMARK  191  A    between atoms: _633  and  _634
REMARK  192  A    between atoms: _633  and  _636
REMARK  193  A    between atoms: _636  and  _637
REMARK  194  A    between atoms: _637  and  _638
REMARK  195  A    between atoms: _637  and  _639
REMARK  196  A    between atoms: _651  and  _652
REMARK  197  A    between atoms: _652  and  _653
REMARK  198  A    between atoms: _652  and  _655
REMARK  199  A    between atoms: _655  and  _656
REMARK  200  A    between atoms: _663  and  _664
REMARK  201  A    between atoms: _664  and  _665
REMARK  202  A    between atoms: _664  and  _667
REMARK  203  A    between atoms: _667  and  _668
REMARK  204  A    between atoms: _668  and  _669
REMARK  205  A    between atoms: _669  and  _670
REMARK  206  A    between atoms: _670  and  _671
REMARK  207  A    between atoms: _685  and  _686
REMARK  208  A    between atoms: _686  and  _687
REMARK  209  A    between atoms: _686  and  _689
REMARK  210  A    between atoms: _689  and  _690
REMARK  211  A    between atoms: _689  and  _691
REMARK  212  A    between atoms: _690  and  _692
REMARK  213  A    between atoms: _704  and  _705
REMARK  214  A    between atoms: _705  and  _706
REMARK  215  A    between atoms: _705  and  _708
REMARK  216  A    between atoms: _708  and  _709
REMARK  217  A    between atoms: _709  and  _710
REMARK  218  A    between atoms: _710  and  _711
REMARK  219  A    between atoms: _728  and  _729
REMARK  220  A    between atoms: _729  and  _730
REMARK  221  A    between atoms: _729  and  _732
REMARK  222  A    between atoms: _732  and  _733
REMARK  223  A    between atoms: _738  and  _739
REMARK  224  A    between atoms: _749  and  _750
REMARK  225  A    between atoms: _750  and  _751
REMARK  226  A    between atoms: _750  and  _753
REMARK  227  A    between atoms: _753  and  _754
REMARK  228  A    between atoms: _754  and  _755
REMARK  229  A    between atoms: _764  and  _765
REMARK  230  A    between atoms: _765  and  _766
REMARK  231  A    between atoms: _765  and  _768
REMARK  232  A    between atoms: _772  and  _773
REMARK  233  A    between atoms: _773  and  _774
REMARK  234  A    between atoms: _773  and  _776
REMARK  235  A    between atoms: _776  and  _777
REMARK  236  A    between atoms: _777  and  _778
REMARK  237  A    between atoms: _777  and  _779
REMARK  238  A    between atoms: _791  and  _792
REMARK  239  A    between atoms: _792  and  _793
REMARK  240  A    between atoms: _792  and  _795
REMARK  241  A    between atoms: _795  and  _796
REMARK  242  A    between atoms: _795  and  _797
REMARK  243  A    between atoms: _805  and  _806
REMARK  244  A    between atoms: _806  and  _807
REMARK  245  A    between atoms: _806  and  _809
REMARK  246  A    between atoms: _809  and  _810
REMARK  247  A    between atoms: _818  and  _819
REMARK  248  A    between atoms: _831  and  _832
REMARK  249  A    between atoms: _832  and  _833
REMARK  250  A    between atoms: _832  and  _835
REMARK  251  A    between atoms: _835  and  _836
REMARK  252  A    between atoms: _842  and  _843
REMARK  253  A    between atoms: _843  and  _844
REMARK  254  A    between atoms: _843  and  _846
REMARK  255  A    between atoms: _846  and  _847
REMARK  256  A    between atoms: _847  and  _848
REMARK  257  A    between atoms: _848  and  _849
REMARK  258  A    between atoms: _849  and  _850
REMARK  259  A    between atoms: _864  and  _865
REMARK  260  A    between atoms: _865  and  _866
REMARK  261  A    between atoms: _865  and  _868
REMARK  262  A    between atoms: _868  and  _869
REMARK  263  A    between atoms: _869  and  _870
REMARK  264  A    between atoms: _869  and  _871
REMARK  265  A    between atoms: _883  and  _884
REMARK  266  A    between atoms: _884  and  _885
REMARK  267  A    between atoms: _884  and  _887
REMARK  268  A    between atoms: _887  and  _888
REMARK  269  A    between atoms: _895  and  _896
REMARK  270  A    between atoms: _896  and  _897
REMARK  271  A    between atoms: _896  and  _899
REMARK  272  A    between atoms: _899  and  _900
REMARK  273  A    between atoms: _906  and  _907
REMARK  274  A    between atoms: _907  and  _908
REMARK  275  A    between atoms: _913  and  _914
REMARK  276  A    between atoms: _914  and  _915
REMARK  277  A    between atoms: _914  and  _917
REMARK  278  A    between atoms: _917  and  _918
REMARK  279  A    between atoms: _918  and  _919
REMARK  280  A    between atoms: _919  and  _920
REMARK  281  A    between atoms: _920  and  _921
REMARK  282  A    between atoms: _935  and  _936
REMARK  283  A    between atoms: _936  and  _937
REMARK  284  A    between atoms: _936  and  _939
REMARK  285  A    between atoms: _939  and  _940
REMARK  286  A    between atoms: _940  and  _941
REMARK  287  A    between atoms: _950  and  _951
REMARK  288  A    between atoms: _951  and  _952
REMARK  289  A    between atoms: _951  and  _954
REMARK  290  A    between atoms: _954  and  _955
REMARK  291  A    between atoms: _955  and  _956
REMARK  292  A    between atoms: _955  and  _957
REMARK  293  A    between atoms: _969  and  _970
REMARK  294  A    between atoms: _970  and  _971
REMARK  295  A    between atoms: _970  and  _973
REMARK  296  A    between atoms: _973  and  _974
REMARK  297  A    between atoms: _986  and  _987
REMARK  298  A    between atoms: _987  and  _988
REMARK  299  A    between atoms: _987  and  _990
REMARK  300  A    between atoms: _990  and  _991
REMARK  301  A    between atoms: _990  and  _992
REMARK  302  A    between atoms: _991  and  _993
REMARK  303  A    between atoms: _1005  and  _1006
REMARK  304  A    between atoms: _1006  and  _1007
REMARK  305  A    between atoms: _1006  and  _1009
REMARK  306  A    between atoms: _1009  and  _1010
REMARK  307  A    between atoms: _1019  and  _1020
REMARK  308  A    between atoms: _1020  and  _1021
REMARK  309  A    between atoms: _1020  and  _1023
REMARK  310  A    between atoms: _1023  and  _1024
REMARK  311  A    between atoms: _1024  and  _1025
REMARK  312  A    between atoms: _1024  and  _1026
REMARK  313  A    between atoms: _1038  and  _1039
REMARK  314  A    between atoms: _1039  and  _1040
REMARK  315  A    between atoms: _1039  and  _1042
REMARK  316  A    between atoms: _1042  and  _1043
REMARK  317  A    between atoms: _1042  and  _1044
REMARK  318  A    between atoms: _1043  and  _1045
REMARK  319  A    between atoms: _1058  and  _1059
REMARK  320  A    between atoms: _1071  and  _1072
REMARK  321  A    between atoms: _1072  and  _1073
REMARK  322  A    between atoms: _1072  and  _1075
REMARK  323  A    between atoms: _1075  and  _1076
REMARK  324  A    between atoms: _1085  and  _1086
REMARK  325  A    between atoms: _1086  and  _1087
REMARK  326  A    between atoms: _1086  and  _1089
REMARK  327  A    between atoms: _1089  and  _1090
REMARK  328  A    between atoms: _1090  and  _1091
REMARK  329  A    between atoms: _1091  and  _1092
REMARK  330  A    between atoms: _1092  and  _1093
REMARK  331  A    between atoms: _1107  and  _1108
REMARK  332  A    between atoms: _1108  and  _1109
REMARK  333  A    between atoms: _1108  and  _1111
REMARK  334  A    between atoms: _1111  and  _1112
REMARK  335  A    between atoms: _1112  and  _1113
REMARK  336  A    between atoms: _1124  and  _1125
REMARK  337  A    between atoms: _1125  and  _1126
REMARK  338  A    between atoms: _1125  and  _1128
REMARK  339  A    between atoms: _1128  and  _1129
REMARK  340  A    between atoms: _1136  and  _1137
REMARK  341  A    between atoms: _1137  and  _1138
REMARK  342  A    between atoms: _1137  and  _1140
REMARK  343  A    between atoms: _1140  and  _1141
REMARK  344  A    between atoms: _1141  and  _1142
REMARK  345  A    between atoms: _1142  and  _1143
REMARK  346  A    between atoms: _1160  and  _1161
REMARK  347  A    between atoms: _1161  and  _1162
REMARK  348  A    between atoms: _1161  and  _1164
REMARK  349  A    between atoms: _1164  and  _1165
REMARK  350  A    between atoms: _1164  and  _1166
REMARK  351  A    between atoms: _1174  and  _1175
REMARK  352  A    between atoms: _1175  and  _1176
REMARK  353  A    between atoms: _1175  and  _1178
REMARK  354  A    between atoms: _1178  and  _1179
REMARK  355  A    between atoms: _1179  and  _1180
REMARK  356  A    between atoms: _1179  and  _1181
REMARK  357  A    between atoms: _1193  and  _1194
REMARK  358  A    between atoms: _1194  and  _1195
REMARK  359  A    between atoms: _1194  and  _1197
REMARK  360  A    between atoms: _1197  and  _1198
REMARK  361  A    between atoms: _1197  and  _1199
REMARK  362  A    between atoms: _1207  and  _1208
REMARK  363  A    between atoms: _1208  and  _1209
REMARK  364  A    between atoms: _1208  and  _1211
REMARK  365  A    between atoms: _1211  and  _1212
REMARK  366  A    between atoms: _1211  and  _1213
REMARK  367  A    between atoms: _1212  and  _1214
REMARK  368  A    between atoms: _1226  and  _1227
REMARK  369  A    between atoms: _1227  and  _1228
REMARK  370  A    between atoms: _1227  and  _1230
REMARK  371  A    between atoms: _1230  and  _1231
REMARK  372  A    between atoms: _1230  and  _1232
REMARK  373  A    between atoms: _1242  and  _1243
REMARK  374  A    between atoms: _1243  and  _1244
REMARK  375  A    between atoms: _1243  and  _1246
REMARK  376  A    between atoms: _1246  and  _1247
REMARK  377  A    between atoms: _1254  and  _1255
REMARK  378  A    between atoms: _1255  and  _1256
REMARK  379  A    between atoms: _1255  and  _1258
REMARK  380  A    between atoms: _1258  and  _1259
REMARK  381  A    between atoms: _1258  and  _1260
REMARK  382  A    between atoms: _1268  and  _1269
REMARK  383  A    between atoms: _1269  and  _1270
REMARK  384  A    between atoms: _1275  and  _1276
REMARK  385  A    between atoms: _1276  and  _1277
REMARK  386  A    between atoms: _1276  and  _1279
REMARK  387  A    between atoms: _1279  and  _1280
REMARK  388  A    between atoms: _1279  and  _1281
REMARK  389  A    between atoms: _1280  and  _1282
REMARK  390  A    between atoms: _1294  and  _1295
REMARK  391  A    between atoms: _1295  and  _1296
REMARK  392  A    between atoms: _1301  and  _1302
REMARK  393  A    between atoms: _1302  and  _1303
REMARK  394  A    between atoms: _1302  and  _1305
REMARK  395  A    between atoms: _1305  and  _1306
REMARK  396  A    between atoms: _1306  and  _1307
REMARK  397  A    between atoms: _1307  and  _1308
REMARK  398  A    between atoms: _1318  and  _1319
REMARK  399  A    between atoms: _1319  and  _1320
REMARK  400  A    between atoms: _1319  and  _1322
REMARK  401  A    between atoms: _1322  and  _1323
REMARK  402  A    between atoms: _1322  and  _1324
REMARK  403  A    between atoms: _1332  and  _1333
REMARK  404  A    between atoms: _1333  and  _1334
REMARK  405  A    between atoms: _1333  and  _1336
REMARK  406  A    between atoms: _1336  and  _1337
REMARK  407  A    between atoms: _1337  and  _1338
REMARK  408  A    between atoms: _1338  and  _1339
REMARK  409  A    between atoms: _1339  and  _1340
REMARK  410  A    between atoms: _1354  and  _1355
REMARK  411  A    between atoms: _1355  and  _1356
REMARK  412  A    between atoms: _1355  and  _1358
REMARK  413  A    between atoms: _1364  and  _1365
REMARK  414  A    between atoms: _1365  and  _1366
REMARK  415  A    between atoms: _1365  and  _1368
REMARK  416  A    between atoms: _1368  and  _1369
REMARK  417  A    between atoms: _1376  and  _1377
REMARK  418  A    between atoms: _1377  and  _1378
REMARK  419  A    between atoms: _1377  and  _1380
REMARK  420  A    between atoms: _1380  and  _1381
REMARK  421  A    between atoms: _1381  and  _1382
REMARK  422  A    between atoms: _1381  and  _1383
REMARK  423  A    between atoms: _1395  and  _1396
REMARK  424  A    between atoms: _1396  and  _1399
REMARK  425  A    between atoms: _1399  and  _1400
REMARK  426  A    between atoms: _1399  and  _1401
REMARK  427  A    between atoms: _1400  and  _1402
REMARK  428  A    between atoms: _1422  and  _1425
REMARK  429  A    between atoms: _1424  and  _1428
REMARK  430  A    between atoms: _1425  and  _1427
REMARK  431  A    between atoms: _1443  and  _1444
REMARK  432  A    between atoms: _1443  and  _1446
REMARK  433  A    between atoms: _1446  and  _1447
REMARK  434  A    between atoms: _1457  and  _1458
REMARK  435  A    between atoms: _1458  and  _1459
REMARK  436  A    between atoms: _1458  and  _1461
REMARK  437  A    between atoms: _1461  and  _1462
REMARK  438  A    between atoms: _1462  and  _1463
REMARK  439  A    between atoms: _1462  and  _1464
REMARK  440  A    between atoms: _1476  and  _1477
REMARK  441  A    between atoms: _1477  and  _1478
REMARK  442  A    between atoms: _1483  and  _1484
REMARK  443  A    between atoms: _1484  and  _1485
REMARK  444  A    between atoms: _1484  and  _1487
REMARK  445  A    between atoms: _1487  and  _1488
REMARK  446  A    between atoms: _1487  and  _1489
REMARK  447  A    between atoms: _1497  and  _1498
REMARK  448  A    between atoms: _1498  and  _1499
REMARK  449  A    between atoms: _1498  and  _1501
REMARK  450  A    between atoms: _1501  and  _1502
REMARK  451  A    between atoms: _1501  and  _1503
REMARK  452  A    between atoms: _1502  and  _1504
REMARK  453  A    between atoms: _1516  and  _1517
REMARK  454  A    between atoms: _1517  and  _1518
REMARK  455  A    between atoms: _1517  and  _1520
REMARK  456  A    between atoms: _1526  and  _1527
REMARK  457  A    between atoms: _1527  and  _1528
REMARK  458  A    between atoms: _1527  and  _1530
REMARK  459  A    between atoms: _1530  and  _1531
REMARK  460  A    between atoms: _1531  and  _1532
REMARK  461  A    between atoms: _1532  and  _1533
REMARK  462  A    between atoms: _1533  and  _1534
REMARK  463  A    between atoms: _1548  and  _1549
REMARK  464  A    between atoms: _1549  and  _1550
REMARK  465  A    between atoms: _1549  and  _1552
REMARK  466  A    between atoms: _1552  and  _1553
REMARK  467  A    between atoms: _1559  and  _1560
REMARK  468  A    between atoms: _1560  and  _1561
REMARK  469  A    between atoms: _1566  and  _1567
REMARK  470  A    between atoms: _1567  and  _1568
REMARK  471  A    between atoms: _1567  and  _1570
REMARK  472  A    between atoms: _1570  and  _1571
REMARK  473  A    between atoms: _1570  and  _1572
REMARK  474  A    between atoms: _1580  and  _1581
REMARK  475  A    between atoms: _1581  and  _1582
REMARK  476  A    between atoms: _1581  and  _1584
REMARK  477  A    between atoms: _1584  and  _1585
REMARK  478  A    between atoms: _1585  and  _1586
REMARK  479  A    between atoms: _1586  and  _1587
REMARK  480  A    between atoms: _1587  and  _1588
REMARK  481  A    between atoms: _1602  and  _1603
REMARK  482  A    between atoms: _1603  and  _1604
REMARK  483  A    between atoms: _1603  and  _1606
REMARK  484  A    between atoms: _1612  and  _1613
REMARK  485  A    between atoms: _1613  and  _1614
REMARK  486  A    between atoms: _1613  and  _1616
REMARK  487  A    between atoms: _1616  and  _1617
REMARK  488  A    between atoms: _1632  and  _1633
REMARK  489  A    between atoms: _1633  and  _1634
REMARK  490  A    between atoms: _1633  and  _1636
REMARK  491  A    between atoms: _1636  and  _1637
REMARK  492  A    between atoms: _1637  and  _1638
REMARK  493  A    between atoms: _1638  and  _1639
REMARK  494  A    between atoms: _1649  and  _1650
REMARK  495  A    between atoms: _1650  and  _1651
REMARK  496  A    between atoms: _1650  and  _1653
REMARK  497  A    between atoms: _1653  and  _1654
REMARK  498  A    between atoms: _1654  and  _1655
REMARK  499  A    between atoms: _1664  and  _1665
REMARK  500  A    between atoms: _1665  and  _1666
REMARK  501  A    between atoms: _1665  and  _1668
REMARK  502  A    between atoms: _1674  and  _1675
REMARK  503  A    between atoms: _1675  and  _1676
REMARK  504  A    between atoms: _1675  and  _1678
REMARK  505  A    between atoms: _1678  and  _1679
REMARK  506  A    between atoms: _1679  and  _1680
REMARK  507  A    between atoms: _1679  and  _1681
REMARK  508  A    between atoms: _1693  and  _1694
REMARK  509  A    between atoms: _1694  and  _1695
REMARK  510  A    between atoms: _1694  and  _1697
REMARK  511  A    between atoms: _1697  and  _1698
REMARK  512  A    between atoms: _1698  and  _1699
REMARK  513  A    between atoms: _1710  and  _1711
REMARK  514  A    between atoms: _1711  and  _1712
REMARK  515  A    between atoms: _1711  and  _1714
REMARK  516  A    between atoms: _1720  and  _1721
REMARK  517  A    between atoms: _1721  and  _1722
REMARK  518  A    between atoms: _1727  and  _1728
REMARK  519  A    between atoms: _1728  and  _1729
REMARK  520  A    between atoms: _1728  and  _1731
REMARK  521  A    between atoms: _1737  and  _1738
REMARK  522  A    between atoms: _1738  and  _1739
REMARK  523  A    between atoms: _1738  and  _1741
REMARK  524  A    between atoms: _1741  and  _1742
REMARK  525  A    between atoms: _1749  and  _1750
REMARK  526  A    between atoms: _1750  and  _1751
REMARK  527  A    between atoms: _1750  and  _1753
REMARK  528  A    between atoms: _1753  and  _1754
REMARK  529  A    between atoms: _1753  and  _1755
REMARK  530  A    between atoms: _1754  and  _1756
REMARK  531  A    between atoms: _1768  and  _1769
REMARK  532  A    between atoms: _1769  and  _1772
REMARK  533  A    between atoms: _1772  and  _1773
REMARK  534  A    between atoms: _1791  and  _1793
REMARK  535  A    between atoms: _1792  and  _1794
REMARK  536  A    between atoms: _1814  and  _1815
REMARK  537  A    between atoms: _1814  and  _1817
REMARK  538  A    between atoms: _1817  and  _1818
REMARK  539  A    between atoms: _1817  and  _1819
REMARK  540  A    between atoms: _1818  and  _1820
REMARK  541  A    between atoms: _1833  and  _1834
REMARK  542  A    between atoms: _1834  and  _1835
REMARK  543  A    between atoms: _1840  and  _1841
REMARK  544  A    between atoms: _1841  and  _1842
REMARK  545  A    between atoms: _1841  and  _1844
REMARK  546  A    between atoms: _1844  and  _1845
REMARK  547  A    between atoms: _1845  and  _1846
REMARK  548  A    between atoms: _1857  and  _1858
REMARK  549  A    between atoms: _1858  and  _1859
REMARK  550  A    between atoms: _1858  and  _1861
REMARK  551  A    between atoms: _1861  and  _1862
REMARK  552  A    between atoms: _1877  and  _1878
REMARK  553  A    between atoms: _1878  and  _1879
REMARK  554  A    between atoms: _1884  and  _1885
REMARK  555  A    between atoms: _1885  and  _1886
REMARK  556  A    between atoms: _1885  and  _1888
REMARK  557  A    between atoms: _1888  and  _1889
REMARK  558  A    between atoms: _1888  and  _1890
REMARK  559  A    between atoms: _1900  and  _1901
REMARK  560  A    between atoms: _1901  and  _1902
REMARK  561  A    between atoms: _1907  and  _1908
REMARK  562  A    between atoms: _1908  and  _1909
REMARK  563  A    between atoms: _1908  and  _1911
REMARK  564  A    between atoms: _1911  and  _1912
REMARK  565  A    between atoms: _1927  and  _1928
REMARK  566  A    between atoms: _1928  and  _1929
REMARK  567  A    between atoms: _1928  and  _1931
REMARK  568  A    between atoms: _1931  and  _1932
REMARK  569  A    between atoms: _1937  and  _1938
REMARK  570  A    between atoms: _1948  and  _1949
REMARK  571  A    between atoms: _1949  and  _1950
REMARK  572  A    between atoms: _1949  and  _1952
REMARK  573  A    between atoms: _1952  and  _1953
REMARK  574  A    between atoms: _1959  and  _1960
REMARK  575  A    between atoms: _1960  and  _1961
REMARK  576  A    between atoms: _1960  and  _1963
REMARK  577  A    between atoms: _1969  and  _1970
REMARK  578  A    between atoms: _1970  and  _1971
REMARK  579  A    between atoms: _1970  and  _1973
REMARK  580  A    between atoms: _1973  and  _1974
REMARK  581  A    between atoms: _1979  and  _1980
REMARK  582  A    between atoms: _1990  and  _1991
REMARK  583  A    between atoms: _1991  and  _1992
REMARK  584  A    between atoms: _1991  and  _1994
REMARK  585  A    between atoms: _1994  and  _1995
REMARK  586  A    between atoms: _1995  and  _1996
REMARK  587  A    between atoms: _1995  and  _1997
REMARK  588  A    between atoms: _2009  and  _2010
REMARK  589  A    between atoms: _2010  and  _2011
REMARK  590  A    between atoms: _2010  and  _2013
REMARK  591  A    between atoms: _2013  and  _2014
REMARK  592  A    between atoms: _2013  and  _2015
REMARK  593  A    between atoms: _2025  and  _2026
REMARK  594  A    between atoms: _2026  and  _2027
REMARK  595  A    between atoms: _2026  and  _2029
REMARK  596  A    between atoms: _2035  and  _2036
REMARK  597  A    between atoms: _2036  and  _2037
REMARK  598  A    between atoms: _2036  and  _2039
REMARK  599  A    between atoms: _2039  and  _2040
REMARK  600  A    between atoms: _2040  and  _2041
REMARK  601  A    between atoms: _2050  and  _2051
REMARK  602  A    between atoms: _2051  and  _2052
REMARK  603  A    between atoms: _2051  and  _2054
REMARK  604  A    between atoms: _2054  and  _2055
REMARK  605  A    between atoms: _2055  and  _2056
REMARK  606  A    between atoms: _2056  and  _2057
REMARK  607  A    between atoms: _2057  and  _2058
REMARK  608  A    between atoms: _2072  and  _2073
REMARK  609  A    between atoms: _2073  and  _2074
REMARK  610  A    between atoms: _2073  and  _2076
REMARK  611  A    between atoms: _2076  and  _2077
REMARK  612  A    between atoms: _2076  and  _2078
REMARK  613  A    between atoms: _2088  and  _2089
REMARK  614  A    between atoms: _2089  and  _2090
REMARK  615  A    between atoms: _2089  and  _2092
REMARK  616  A    between atoms: _2092  and  _2093
REMARK  617  A    between atoms: _2092  and  _2094
REMARK  618  A    between atoms: _2102  and  _2103
REMARK  619  A    between atoms: _2103  and  _2104
REMARK  620  A    between atoms: _2103  and  _2106
REMARK  621  A    between atoms: _2106  and  _2107
REMARK  622  A    between atoms: _2106  and  _2108
REMARK  623  A    between atoms: _2118  and  _2119
REMARK  624  A    between atoms: _2119  and  _2120
REMARK  625  A    between atoms: _2119  and  _2122
REMARK  626  A    between atoms: _2122  and  _2123
REMARK  627  A    between atoms: _2122  and  _2124
REMARK  628  A    between atoms: _2123  and  _2125
REMARK  629  A    between atoms: _2137  and  _2138
REMARK  630  A    between atoms: _2138  and  _2139
REMARK  631  A    between atoms: _2138  and  _2141
REMARK  632  A    between atoms: _2141  and  _2142
REMARK  633  A    between atoms: _2141  and  _2143
REMARK  634  A    between atoms: _2151  and  _2152
REMARK  635  A    between atoms: _2152  and  _2153
REMARK  636  A    between atoms: _2152  and  _2155
REMARK  637  A    between atoms: _2155  and  _2156
REMARK  638  A    between atoms: _2156  and  _2157
REMARK  639  A    between atoms: _2157  and  _2158
REMARK  640  A    between atoms: _2158  and  _2159
REMARK  641  A    between atoms: _2173  and  _2174
REMARK  642  A    between atoms: _2174  and  _2175
REMARK  643  A    between atoms: _2174  and  _2177
REMARK  644  A    between atoms: _2177  and  _2178
REMARK  645  A    between atoms: _2190  and  _2191
REMARK  646  A    between atoms: _2191  and  _2192
REMARK  647  A    between atoms: _2191  and  _2194
REMARK  648  A    between atoms: _2194  and  _2195
REMARK  649  A    between atoms: _2204  and  _2205
REMARK  650  A    between atoms: _2205  and  _2206
REMARK  651  A    between atoms: _2205  and  _2208
REMARK  652  A    between atoms: _2208  and  _2209
REMARK  653  A    between atoms: _2216  and  _2217
REMARK  654  A    between atoms: _2217  and  _2218
REMARK  655  A    between atoms: _2217  and  _2220
REMARK  656  A    between atoms: _2220  and  _2221
REMARK  657  A    between atoms: _2228  and  _2229
REMARK  658  A    between atoms: _2229  and  _2230
REMARK  659  A    between atoms: _2229  and  _2232
REMARK  660  A    between atoms: _2232  and  _2233
REMARK  661  A    between atoms: _2233  and  _2234
REMARK  662  A    between atoms: _2243  and  _2244
REMARK  663  A    between atoms: _2244  and  _2245
REMARK  664  A    between atoms: _2244  and  _2247
REMARK  665  A    between atoms: _2247  and  _2248
REMARK  666  A    between atoms: _2248  and  _2249
REMARK  667  A    between atoms: _2260  and  _2261
REMARK  668  A    between atoms: _2261  and  _2262
REMARK  669  A    between atoms: _2261  and  _2264
REMARK  670  A    between atoms: _2264  and  _2265
REMARK  671  A    between atoms: _2270  and  _2271
REMARK  672  A    between atoms: _2281  and  _2282
REMARK  673  A    between atoms: _2282  and  _2283
REMARK  674  A    between atoms: _2282  and  _2285
REMARK  675  A    between atoms: _2291  and  _2292
REMARK  676  A    between atoms: _2292  and  _2293
REMARK  677  A    between atoms: _2292  and  _2295
REMARK  678  A    between atoms: _2295  and  _2296
REMARK  679  A    between atoms: _2315  and  _2316
REMARK  680  A    between atoms: _2316  and  _2317
REMARK  681  A    between atoms: _2316  and  _2319
REMARK  682  A    between atoms: _2319  and  _2320
REMARK  683  A    between atoms: _2320  and  _2321
REMARK  684  A    between atoms: _2330  and  _2331
REMARK  685  A    between atoms: _2331  and  _2332
REMARK  686  A    between atoms: _2331  and  _2334
REMARK  687  A    between atoms: _2334  and  _2335
REMARK  688  A    between atoms: _2341  and  _2342
REMARK  689  A    between atoms: _2342  and  _2343
REMARK  690  A    between atoms: _2342  and  _2345
REMARK  691  A    between atoms: _2345  and  _2346
REMARK  692  A    between atoms: _2352  and  _2353
REMARK  693  A    between atoms: _2353  and  _2354
REMARK  694  A    between atoms: _2353  and  _2356
REMARK  695  A    between atoms: _2362  and  _2363
REMARK  696  A    between atoms: _2363  and  _2364
REMARK  697  A    between atoms: _2369  and  _2370
REMARK  698  A    between atoms: _2370  and  _2371
REMARK  699  A    between atoms: _2376  and  _2377
REMARK  700  A    between atoms: _2377  and  _2378
REMARK  701  A    between atoms: _2377  and  _2380
REMARK  702  A    between atoms: _2380  and  _2381
REMARK  703  A    between atoms: _2387  and  _2388
REMARK  704  A    between atoms: _2388  and  _2389
REMARK  705  A    between atoms: _2388  and  _2391
REMARK  706  A    between atoms: _2391  and  _2392
REMARK  707  A    between atoms: _2407  and  _2408
REMARK  708  A    between atoms: _2408  and  _2409
REMARK  709  A    between atoms: _2408  and  _2411
REMARK  710  A    between atoms: _2411  and  _2412
REMARK  711  A    between atoms: _2411  and  _2413
REMARK  712  A    between atoms: _2421  and  _2422
REMARK  713  A    between atoms: _2422  and  _2423
REMARK  714  A    between atoms: _2422  and  _2425
REMARK  715  A    between atoms: _2425  and  _2426
REMARK  716  A    between atoms: _2425  and  _2427
REMARK  717  A    between atoms: _2437  and  _2438
REMARK  718  A    between atoms: _2438  and  _2439
REMARK  719  A    between atoms: _2438  and  _2441
REMARK  720  A    between atoms: _2441  and  _2442
REMARK  721  A    between atoms: _2442  and  _2443
REMARK  722  A    between atoms: _2443  and  _2444
REMARK  723  A    between atoms: _2461  and  _2462
REMARK  724  A    between atoms: _2462  and  _2463
REMARK  725  A    between atoms: _2462  and  _2465
REMARK  726  A    between atoms: _2465  and  _2466
REMARK  727  A    between atoms: _2465  and  _2467
REMARK  728  A    between atoms: _2475  and  _2476
REMARK  729  A    between atoms: _2476  and  _2477
REMARK  730  A    between atoms: _2476  and  _2479
REMARK  731  A    between atoms: _2479  and  _2480
REMARK  732  A    between atoms: _2487  and  _2488
REMARK  733  A    between atoms: _2488  and  _2489
REMARK  734  A    between atoms: _2488  and  _2491
REMARK  735  A    between atoms: _2491  and  _2492
REMARK  736  A    between atoms: _2491  and  _2493
REMARK  737  A    between atoms: _2501  and  _2502
REMARK  738  A    between atoms: _2502  and  _2503
REMARK  739  A    between atoms: _2508  and  _2509
REMARK  740  A    between atoms: _2509  and  _2510
REMARK  741  A    between atoms: _2509  and  _2512
REMARK  742  A    between atoms: _2512  and  _2513
REMARK  743  A    between atoms: _2513  and  _2514
REMARK  744  A    between atoms: _2524  and  _2525
REMARK  745  A    between atoms: _2537  and  _2538
REMARK  746  A    between atoms: _2538  and  _2539
REMARK  747  A    between atoms: _2538  and  _2541
REMARK  748  A    between atoms: _2541  and  _2542
REMARK  749  A    between atoms: _2542  and  _2543
REMARK  750  A    between atoms: _2543  and  _2544
REMARK  751  A    between atoms: _2554  and  _2555
REMARK  752  A    between atoms: _2555  and  _2556
REMARK  753  A    between atoms: _2561  and  _2562
REMARK  754  A    between atoms: _2562  and  _2563
REMARK  755  A    between atoms: _2562  and  _2565
REMARK  756  A    between atoms: _2565  and  _2566
REMARK  757  A    between atoms: _2566  and  _2567
REMARK  758  A    between atoms: _2567  and  _2568
REMARK  759  A    between atoms: _2585  and  _2586
REMARK  760  A    between atoms: _2586  and  _2587
REMARK  761  A    between atoms: _2592  and  _2593
REMARK  762  A    between atoms: _2593  and  _2594
REMARK  763  A    between atoms: _2593  and  _2596
REMARK  764  A    between atoms: _2596  and  _2597
REMARK  765  A    between atoms: _2596  and  _2598
REMARK  766  A    between atoms: _2606  and  _2607
REMARK  767  A    between atoms: _2607  and  _2608
REMARK  768  A    between atoms: _2607  and  _2610
REMARK  769  A    between atoms: _2610  and  _2611
REMARK  770  A    between atoms: _2611  and  _2612
REMARK  771  A    between atoms: _2612  and  _2613
REMARK  772  A    between atoms: _2613  and  _2614
REMARK  773  A    between atoms: _2628  and  _2629
REMARK  774  A    between atoms: _2629  and  _2630
REMARK  775  A    between atoms: _2629  and  _2632
REMARK  776  A    between atoms: _2632  and  _2633
REMARK  777  A    between atoms: _2632  and  _2634
REMARK  778  A    between atoms: _2644  and  _2645
REMARK  779  A    between atoms: _2645  and  _2646
REMARK  780  A    between atoms: _2645  and  _2648
REMARK  781  A    between atoms: _2648  and  _2649
REMARK  782  A    between atoms: _2648  and  _2650
REMARK  783  A    between atoms: _2649  and  _2651
REMARK  784  A    between atoms: _2663  and  _2664
REMARK  785  A    between atoms: _2664  and  _2665
REMARK  786  A    between atoms: _2664  and  _2667
REMARK  787  A    between atoms: _2667  and  _2668
REMARK  788  A    between atoms: _2668  and  _2669
REMARK  789  A    between atoms: _2668  and  _2670
REMARK  790  A    between atoms: _2682  and  _2683
REMARK  791  A    between atoms: _2683  and  _2684
REMARK  792  A    between atoms: _2683  and  _2686
REMARK  793  A    between atoms: _2686  and  _2687
REMARK  794  A    between atoms: _2699  and  _2700
REMARK  795  A    between atoms: _2700  and  _2701
REMARK  796  A    between atoms: _2700  and  _2703
REMARK  797  A    between atoms: _2703  and  _2704
REMARK  798  A    between atoms: _2704  and  _2705
REMARK  799  A    between atoms: _2704  and  _2706
REMARK  800  A    between atoms: _2718  and  _2719
REMARK  801  A    between atoms: _2719  and  _2720
REMARK  802  A    between atoms: _2719  and  _2722
REMARK  803  A    between atoms: _2722  and  _2723
REMARK  804  A    between atoms: _2723  and  _2724
REMARK  805  A    between atoms: _2724  and  _2725
REMARK  806  A    between atoms: _2725  and  _2726
REMARK  807  A    between atoms: _2740  and  _2741
REMARK  808  A    between atoms: _2741  and  _2742
REMARK  809  A    between atoms: _2741  and  _2744
REMARK  810  A    between atoms: _2744  and  _2745
REMARK  811  A    between atoms: _2745  and  _2746
REMARK  812  A    between atoms: _2755  and  _2756
REMARK  813  A    between atoms: _2756  and  _2757
REMARK  814  A    between atoms: _2756  and  _2759
REMARK  815  A    between atoms: _2759  and  _2760
REMARK  816  A    between atoms: _2767  and  _2768
REMARK  817  A    between atoms: _2768  and  _2769
REMARK  818  A    between atoms: _2768  and  _2771
REMARK  819  A    between atoms: _2771  and  _2772
REMARK  820  A    between atoms: _2772  and  _2773
REMARK  821  A    between atoms: _2784  and  _2785
REMARK  822  A    between atoms: _2785  and  _2786
REMARK  823  A    between atoms: _2785  and  _2788
REMARK  824  A    between atoms: _2788  and  _2789
REMARK  825  A    between atoms: _2788  and  _2790
REMARK  826  A    between atoms: _2798  and  _2799
REMARK  827  A    between atoms: _2799  and  _2800
REMARK  828  A    between atoms: _2799  and  _2802
REMARK  829  A    between atoms: _2802  and  _2803
REMARK  830  A    between atoms: _2803  and  _2804
REMARK  831  A    between atoms: _2813  and  _2814
REMARK  832  A    between atoms: _2814  and  _2815
REMARK  833  A    between atoms: _2814  and  _2817
REMARK  834  A    between atoms: _2817  and  _2818
REMARK  835  A    between atoms: _2823  and  _2824
REMARK  836  A    between atoms: _2834  and  _2835
REMARK  837  A    between atoms: _2835  and  _2838
REMARK  838  A    between atoms: _2838  and  _2839
REMARK  839  A    between atoms: _2839  and  _2840
REMARK  840  A    between atoms: _2839  and  _2841
REMARK  841  A    between atoms: _2884  and  _2885
REMARK  842  A    between atoms: _2884  and  _2887
REMARK  843  A    between atoms: _2887  and  _2888
REMARK  844  A    between atoms: _2888  and  _2889
REMARK  845  A    between atoms: _2899  and  _2900
REMARK  846  A    between atoms: _2900  and  _2901
REMARK  847  A    between atoms: _2900  and  _2903
REMARK  848  A    between atoms: _2903  and  _2904
REMARK  849  A    between atoms: _2904  and  _2905
REMARK  850  A    between atoms: _2905  and  _2906
REMARK  851  A    between atoms: _2923  and  _2924
REMARK  852  A    between atoms: _2924  and  _2925
REMARK  853  A    between atoms: _2924  and  _2927
REMARK  854  A    between atoms: _2927  and  _2928
REMARK  855  A    between atoms: _2928  and  _2929
REMARK  856  A    between atoms: _2929  and  _2930
REMARK  857  A    between atoms: _2947  and  _2948
REMARK  858  A    between atoms: _2948  and  _2949
REMARK  859  A    between atoms: _2948  and  _2951
REMARK  860  A    between atoms: _2951  and  _2952
REMARK  861  A    between atoms: _2951  and  _2953
REMARK  862  A    between atoms: _2952  and  _2954
REMARK  863  A    between atoms: _2966  and  _2967
REMARK  864  A    between atoms: _2967  and  _2968
REMARK  865  A    between atoms: _2967  and  _2970
REMARK  866  A    between atoms: _2970  and  _2971
REMARK  867  A    between atoms: _2971  and  _2972
REMARK  868  A    between atoms: _2972  and  _2973
REMARK  869  A    between atoms: _2973  and  _2974
REMARK  870  A    between atoms: _2988  and  _2989
REMARK  871  A    between atoms: _2989  and  _2990
REMARK  872  A    between atoms: _2989  and  _2992
REMARK  873  A    between atoms: _2992  and  _2993
REMARK  874  A    between atoms: _2993  and  _2994
REMARK  875  A    between atoms: _3003  and  _3004
REMARK  876  A    between atoms: _3004  and  _3005
REMARK  877  A    between atoms: _3004  and  _3007
REMARK  878  A    between atoms: _3007  and  _3008
REMARK  879  A    between atoms: _3007  and  _3009
REMARK  880  A    between atoms: _3008  and  _3010
REMARK  881  A    between atoms: _3022  and  _3023
REMARK  882  A    between atoms: _3023  and  _3024
REMARK  883  A    between atoms: _3023  and  _3026
REMARK  884  A    between atoms: _3026  and  _3027
REMARK  885  A    between atoms: _3026  and  _3028
REMARK  886  A    between atoms: _3038  and  _3039
REMARK  887  A    between atoms: _3039  and  _3040
REMARK  888  A    between atoms: _3039  and  _3042
REMARK  889  A    between atoms: _3042  and  _3043
REMARK  890  A    between atoms: _3043  and  _3044
REMARK  891  A    between atoms: _3044  and  _3045
REMARK  892  A    between atoms: _3045  and  _3046
REMARK  893  A    between atoms: _3060  and  _3061
REMARK  894  A    between atoms: _3061  and  _3062
REMARK  895  A    between atoms: _3061  and  _3064
REMARK  896  A    between atoms: _3064  and  _3065
REMARK  897  A    between atoms: _3065  and  _3066
REMARK  898  A    between atoms: _3066  and  _3067
REMARK  899  A    between atoms: _3067  and  _3068
REMARK  900  A    between atoms: _3082  and  _3083
REMARK  901  A    between atoms: _3083  and  _3084
REMARK  902  A    between atoms: _3083  and  _3086
REMARK  903  A    between atoms: _3086  and  _3087
REMARK  904  A    between atoms: _3099  and  _3100
REMARK  905  A    between atoms: _3100  and  _3101
REMARK  906  A    between atoms: _3100  and  _3103
REMARK  907  A    between atoms: _3103  and  _3104
REMARK  908  A    between atoms: _3110  and  _3111
REMARK  909  A    between atoms: _3111  and  _3112
REMARK  910  A    between atoms: _3111  and  _3114
REMARK  911  A    between atoms: _3114  and  _3115
REMARK  912  A    between atoms: _3115  and  _3116
REMARK  913  A    between atoms: _3127  and  _3128
REMARK  914  A    between atoms: _3128  and  _3129
REMARK  915  A    between atoms: _3128  and  _3131
REMARK  916  A    between atoms: _3131  and  _3132
REMARK  917  A    between atoms: _3147  and  _3148
REMARK  918  A    between atoms: _3148  and  _3149
REMARK  919  A    between atoms: _3148  and  _3151
REMARK  920  A    between atoms: _3151  and  _3152
REMARK  921  A    between atoms: _3151  and  _3153
REMARK  922  A    between atoms: _3152  and  _3154
REMARK  923  A    between atoms: _3166  and  _3167
REMARK  924  A    between atoms: _3167  and  _3168
REMARK  925  A    between atoms: _3173  and  _3174
REMARK  926  A    between atoms: _3174  and  _3175
REMARK  927  A    between atoms: _3174  and  _3177
REMARK  928  A    between atoms: _3177  and  _3178
REMARK  929  A    between atoms: _3183  and  _3184
REMARK  930  A    between atoms: _3195  and  _3196
REMARK  931  A    between atoms: _3208  and  _3209
REMARK  932  A    between atoms: _3209  and  _3210
REMARK  933  A    between atoms: _3209  and  _3212
REMARK  934  A    between atoms: _3212  and  _3213
REMARK  935  A    between atoms: _3212  and  _3214
REMARK  936  A    between atoms: _3213  and  _3215
REMARK  937  A    between atoms: _3227  and  _3228
REMARK  938  A    between atoms: _3228  and  _3229
REMARK  939  A    between atoms: _3228  and  _3231
REMARK  940  A    between atoms: _3231  and  _3232
REMARK  941  A    between atoms: _3231  and  _3233
REMARK  942  A    between atoms: _3241  and  _3242
REMARK  943  A    between atoms: _3242  and  _3243
REMARK  944  A    between atoms: _3242  and  _3245
REMARK  945  A    between atoms: _3245  and  _3246
REMARK  946  A    between atoms: _3246  and  _3247
REMARK  947  A    between atoms: _3246  and  _3248
REMARK  948  A    between atoms: _3260  and  _3261
REMARK  949  A    between atoms: _3261  and  _3262
REMARK  950  A    between atoms: _3261  and  _3264
REMARK  951  A    between atoms: _3264  and  _3265
REMARK  952  A    between atoms: _3280  and  _3281
REMARK  953  A    between atoms: _3281  and  _3282
REMARK  954  A    between atoms: _3281  and  _3284
REMARK  955  A    between atoms: _3284  and  _3285
REMARK  956  A    between atoms: _3284  and  _3286
REMARK  957  A    between atoms: _3296  and  _3297
REMARK  958  A    between atoms: _3297  and  _3298
REMARK  959  A    between atoms: _3297  and  _3300
REMARK  960  A    between atoms: _3300  and  _3301
REMARK  961  A    between atoms: _3301  and  _3302
REMARK                            x       y       z     vdW  Elec       q    Type
REMARK                         _______ _______ _______ _____ _____    ______ ____
ROOT
ATOM      1  H   UNK     1      -7.571  20.459  40.815  0.00  0.00    +0.000 HD
ENDROOT
TORSDOF 0
REMARK  Name = /Users/mlugowska/PhD/ML_residence_time_prediction/protein_files/5J20_protein.pdb
REMARK  961 active torsions:
REMARK  status: ('A' for Active; 'I' for Inactive)
REMARK    1  A    between atoms: _2  and  _3
REMARK    2  A    between atoms: _2  and  _5
REMARK    3  A    between atoms: _10  and  _11
REMARK    4  A    between atoms: _11  and  _12
REMARK    5  A    between atoms: _11  and  _14
REMARK    6  A    between atoms: _14  and  _15
REMARK    7  A    between atoms: _14  and  _16
REMARK    8  A    between atoms: _26  and  _27
REMARK    9  A    between atoms: _27  and  _28
REMARK   10  A    between atoms: _27  and  _30
REMARK   11  A    between atoms: _30  and  _31
REMARK   12  A    between atoms: _31  and  _32
REMARK   13  A    between atoms: _41  and  _42
REMARK   14  A    between atoms: _42  and  _43
REMARK   15  A    between atoms: _42  and  _45
REMARK   16  A    between atoms: _45  and  _46
REMARK   17  A    between atoms: _45  and  _47
REMARK   18  A    between atoms: _55  and  _56
REMARK   19  A    between atoms: _56  and  _57
REMARK   20  A    between atoms: _56  and  _59
REMARK   21  A    between atoms: _59  and  _60
REMARK   22  A    between atoms: _75  and  _76
REMARK   23  A    between atoms: _76  and  _77
REMARK   24  A    between atoms: _76  and  _79
REMARK   25  A    between atoms: _85  and  _86
REMARK   26  A    between atoms: _86  and  _87
REMARK   27  A    between atoms: _86  and  _89
REMARK   28  A    between atoms: _89  and  _90
REMARK   29  A    between atoms: _105  and  _106
REMARK   30  A    between atoms: _106  and  _107
REMARK   31  A    between atoms: _106  and  _109
REMARK   32  A    between atoms: _109  and  _110
REMARK   33  A    between atoms: _110  and  _111
REMARK   34  A    between atoms: _122  and  _123
REMARK   35  A    between atoms: _123  and  _124
REMARK   36  A    between atoms: _123  and  _126
REMARK   37  A    between atoms: _132  and  _133
REMARK   38  A    between atoms: _133  and  _134
REMARK   39  A    between atoms: _133  and  _136
REMARK   40  A    between atoms: _136  and  _137
REMARK   41  A    between atoms: _137  and  _138
REMARK   42  A    between atoms: _147  and  _148
REMARK   43  A    between atoms: _148  and  _149
REMARK   44  A    between atoms: _148  and  _151
REMARK   45  A    between atoms: _151  and  _152
REMARK   46  A    between atoms: _151  and  _153
REMARK   47  A    between atoms: _152  and  _154
REMARK   48  A    between atoms: _166  and  _167
REMARK   49  A    between atoms: _167  and  _168
REMARK   50  A    between atoms: _167  and  _170
REMARK   51  A    between atoms: _176  and  _177
REMARK   52  A    between atoms: _177  and  _178
REMARK   53  A    between atoms: _177  and  _180
REMARK   54  A    between atoms: _180  and  _181
REMARK   55  A    between atoms: _181  and  _182
REMARK   56  A    between atoms: _193  and  _194
REMARK   57  A    between atoms: _194  and  _195
REMARK   58  A    between atoms: _194  and  _197
REMARK   59  A    between atoms: _197  and  _198
REMARK   60  A    between atoms: _198  and  _199
REMARK   61  A    between atoms: _198  and  _200
REMARK   62  A    between atoms: _212  and  _213
REMARK   63  A    between atoms: _213  and  _214
REMARK   64  A    between atoms: _213  and  _216
REMARK   65  A    between atoms: _216  and  _217
REMARK   66  A    between atoms: _217  and  _218
REMARK   67  A    between atoms: _218  and  _219
REMARK   68  A    between atoms: _229  and  _230
REMARK   69  A    between atoms: _230  and  _231
REMARK   70  A    between atoms: _230  and  _233
REMARK   71  A    between atoms: _233  and  _234
REMARK   72  A    between atoms: _240  and  _241
REMARK   73  A    between atoms: _241  and  _242
REMARK   74  A    between atoms: _241  and  _244
REMARK   75  A    between atoms: _244  and  _245
REMARK   76  A    between atoms: _245  and  _246
REMARK   77  A    between atoms: _245  and  _247
REMARK   78  A    between atoms: _259  and  _260
REMARK   79  A    between atoms: _260  and  _261
REMARK   80  A    between atoms: _260  and  _263
REMARK   81  A    between atoms: _263  and  _264
REMARK   82  A    between atoms: _263  and  _265
REMARK   83  A    between atoms: _264  and  _266
REMARK   84  A    between atoms: _278  and  _279
REMARK   85  A    between atoms: _279  and  _280
REMARK   86  A    between atoms: _279  and  _282
REMARK   87  A    between atoms: _282  and  _283
REMARK   88  A    between atoms: _282  and  _284
REMARK   89  A    between atoms: _283  and  _285
REMARK   90  A    between atoms: _297  and  _298
REMARK   91  A    between atoms: _298  and  _299
REMARK   92  A    between atoms: _298  and  _301
REMARK   93  A    between atoms: _301  and  _302
REMARK   94  A    between atoms: _311  and  _312
REMARK   95  A    between atoms: _312  and  _313
REMARK   96  A    between atoms: _312  and  _315
REMARK   97  A    between atoms: _315  and  _316
REMARK   98  A    between atoms: _315  and  _317
REMARK   99  A    between atoms: _325  and  _326
REMARK  100  A    between atoms: _326  and  _327
REMARK  101  A    between atoms: _326  and  _329
REMARK  102  A    between atoms: _329  and  _330
REMARK  103  A    between atoms: _345  and  _346
REMARK  104  A    between atoms: _346  and  _347
REMARK  105  A    between atoms: _346  and  _349
REMARK  106  A    between atoms: _349  and  _350
REMARK  107  A    between atoms: _355  and  _356
REMARK  108  A    between atoms: _366  and  _367
REMARK  109  A    between atoms: _367  and  _368
REMARK  110  A    between atoms: _367  and  _370
REMARK  111  A    between atoms: _370  and  _371
REMARK  112  A    between atoms: _377  and  _378
REMARK  113  A    between atoms: _378  and  _379
REMARK  114  A    between atoms: _378  and  _381
REMARK  115  A    between atoms: _381  and  _382
REMARK  116  A    between atoms: _391  and  _392
REMARK  117  A    between atoms: _392  and  _393
REMARK  118  A    between atoms: _392  and  _395
REMARK  119  A    between atoms: _395  and  _396
REMARK  120  A    between atoms: _396  and  _397
REMARK  121  A    between atoms: _397  and  _398
REMARK  122  A    between atoms: _398  and  _399
REMARK  123  A    between atoms: _413  and  _414
REMARK  124  A    between atoms: _414  and  _415
REMARK  125  A    between atoms: _414  and  _417
REMARK  126  A    between atoms: _417  and  _418
REMARK  127  A    between atoms: _418  and  _419
REMARK  128  A    between atoms: _428  and  _429
REMARK  129  A    between atoms: _429  and  _430
REMARK  130  A    between atoms: _429  and  _432
REMARK  131  A    between atoms: _432  and  _433
REMARK  132  A    between atoms: _432  and  _434
REMARK  133  A    between atoms: _433  and  _435
REMARK  134  A    between atoms: _447  and  _448
REMARK  135  A    between atoms: _448  and  _449
REMARK  136  A    between atoms: _448  and  _451
REMARK  137  A    between atoms: _451  and  _452
REMARK  138  A    between atoms: _467  and  _468
REMARK  139  A    between atoms: _468  and  _469
REMARK  140  A    between atoms: _468  and  _471
REMARK  141  A    between atoms: _471  and  _472
REMARK  142  A    between atoms: _472  and  _473
REMARK  143  A    between atoms: _472  and  _474
REMARK  144  A    between atoms: _486  and  _487
REMARK  145  A    between atoms: _487  and  _488
REMARK  146  A    between atoms: _487  and  _490
REMARK  147  A    between atoms: _490  and  _491
REMARK  148  A    between atoms: _491  and  _492
REMARK  149  A    between atoms: _492  and  _493
REMARK  150  A    between atoms: _510  and  _511
REMARK  151  A    between atoms: _511  and  _512
REMARK  152  A    between atoms: _511  and  _514
REMARK  153  A    between atoms: _514  and  _515
REMARK  154  A    between atoms: _515  and  _516
REMARK  155  A    between atoms: _525  and  _526
REMARK  156  A    between atoms: _526  and  _527
REMARK  157  A    between atoms: _526  and  _529
REMARK  158  A    between atoms: _529  and  _530
REMARK  159  A    between atoms: _530  and  _531
REMARK  160  A    between atoms: _530  and  _532
REMARK  161  A    between atoms: _544  and  _545
REMARK  162  A    between atoms: _545  and  _546
REMARK  163  A    between atoms: _545  and  _548
REMARK  164  A    between atoms: _548  and  _549
REMARK  165  A    between atoms: _548  and  _550
REMARK  166  A    between atoms: _549  and  _551
REMARK  167  A    between atoms: _563  and  _564
REMARK  168  A    between atoms: _564  and  _565
REMARK  169  A    between atoms: _564  and  _567
REMARK  170  A    between atoms: _567  and  _568
REMARK  171  A    between atoms: _574  and  _575
REMARK  172  A    between atoms: _575  and  _576
REMARK  173  A    between atoms: _575  and  _578
REMARK  174  A    between atoms: _578  and  _579
REMARK  175  A    between atoms: _588  and  _589
REMARK  176  A    between atoms: _589  and  _590
REMARK  177  A    between atoms: _589  and  _592
REMARK  178  A    between atoms: _592  and  _593
REMARK  179  A    between atoms: _599  and  _600
REMARK  180  A    between atoms: _600  and  _601
REMARK  181  A    between atoms: _600  and  _603
REMARK  182  A    between atoms: _603  and  _604
REMARK  183  A    between atoms: _610  and  _611
REMARK  184  A    between atoms: _611  and  _612
REMARK  185  A    between atoms: _611  and  _614
REMARK  186  A    between atoms: _614  and  _615
REMARK  187  A    between atoms: _622  and  _623
REMARK  188  A    between atoms: _623  and  _624
REMARK  189  A    between atoms: _623  and  _626
REMARK  190  A    between atoms: _632  and  _633
REMARK  191  A    between atoms: _633  and  _634
REMARK  192  A    between atoms: _633  and  _636
REMARK  193  A    between atoms: _636  and  _637
REMARK  194  A    between atoms: _637  and  _638
REMARK  195  A    between atoms: _637  and  _639
REMARK  196  A    between atoms: _651  and  _652
REMARK  197  A    between atoms: _652  and  _653
REMARK  198  A    between atoms: _652  and  _655
REMARK  199  A    between atoms: _655  and  _656
REMARK  200  A    between atoms: _663  and  _664
REMARK  201  A    between atoms: _664  and  _665
REMARK  202  A    between atoms: _664  and  _667
REMARK  203  A    between atoms: _667  and  _668
REMARK  204  A    between atoms: _668  and  _669
REMARK  205  A    between atoms: _669  and  _670
REMARK  206  A    between atoms: _670  and  _671
REMARK  207  A    between atoms: _685  and  _686
REMARK  208  A    between atoms: _686  and  _687
REMARK  209  A    between atoms: _686  and  _689
REMARK  210  A    between atoms: _689  and  _690
REMARK  211  A    between atoms: _689  and  _691
REMARK  212  A    between atoms: _690  and  _692
REMARK  213  A    between atoms: _704  and  _705
REMARK  214  A    between atoms: _705  and  _706
REMARK  215  A    between atoms: _705  and  _708
REMARK  216  A    between atoms: _708  and  _709
REMARK  217  A    between atoms: _709  and  _710
REMARK  218  A    between atoms: _710  and  _711
REMARK  219  A    between atoms: _728  and  _729
REMARK  220  A    between atoms: _729  and  _730
REMARK  221  A    between atoms: _729  and  _732
REMARK  222  A    between atoms: _732  and  _733
REMARK  223  A    between atoms: _738  and  _739
REMARK  224  A    between atoms: _749  and  _750
REMARK  225  A    between atoms: _750  and  _751
REMARK  226  A    between atoms: _750  and  _753
REMARK  227  A    between atoms: _753  and  _754
REMARK  228  A    between atoms: _754  and  _755
REMARK  229  A    between atoms: _764  and  _765
REMARK  230  A    between atoms: _765  and  _766
REMARK  231  A    between atoms: _765  and  _768
REMARK  232  A    between atoms: _772  and  _773
REMARK  233  A    between atoms: _773  and  _774
REMARK  234  A    between atoms: _773  and  _776
REMARK  235  A    between atoms: _776  and  _777
REMARK  236  A    between atoms: _777  and  _778
REMARK  237  A    between atoms: _777  and  _779
REMARK  238  A    between atoms: _791  and  _792
REMARK  239  A    between atoms: _792  and  _793
REMARK  240  A    between atoms: _792  and  _795
REMARK  241  A    between atoms: _795  and  _796
REMARK  242  A    between atoms: _795  and  _797
REMARK  243  A    between atoms: _805  and  _806
REMARK  244  A    between atoms: _806  and  _807
REMARK  245  A    between atoms: _806  and  _809
REMARK  246  A    between atoms: _809  and  _810
REMARK  247  A    between atoms: _818  and  _819
REMARK  248  A    between atoms: _831  and  _832
REMARK  249  A    between atoms: _832  and  _833
REMARK  250  A    between atoms: _832  and  _835
REMARK  251  A    between atoms: _835  and  _836
REMARK  252  A    between atoms: _842  and  _843
REMARK  253  A    between atoms: _843  and  _844
REMARK  254  A    between atoms: _843  and  _846
REMARK  255  A    between atoms: _846  and  _847
REMARK  256  A    between atoms: _847  and  _848
REMARK  257  A    between atoms: _848  and  _849
REMARK  258  A    between atoms: _849  and  _850
REMARK  259  A    between atoms: _864  and  _865
REMARK  260  A    between atoms: _865  and  _866
REMARK  261  A    between atoms: _865  and  _868
REMARK  262  A    between atoms: _868  and  _869
REMARK  263  A    between atoms: _869  and  _870
REMARK  264  A    between atoms: _869  and  _871
REMARK  265  A    between atoms: _883  and  _884
REMARK  266  A    between atoms: _884  and  _885
REMARK  267  A    between atoms: _884  and  _887
REMARK  268  A    between atoms: _887  and  _888
REMARK  269  A    between atoms: _895  and  _896
REMARK  270  A    between atoms: _896  and  _897
REMARK  271  A    between atoms: _896  and  _899
REMARK  272  A    between atoms: _899  and  _900
REMARK  273  A    between atoms: _906  and  _907
REMARK  274  A    between atoms: _907  and  _908
REMARK  275  A    between atoms: _913  and  _914
REMARK  276  A    between atoms: _914  and  _915
REMARK  277  A    between atoms: _914  and  _917
REMARK  278  A    between atoms: _917  and  _918
REMARK  279  A    between atoms: _918  and  _919
REMARK  280  A    between atoms: _919  and  _920
REMARK  281  A    between atoms: _920  and  _921
REMARK  282  A    between atoms: _935  and  _936
REMARK  283  A    between atoms: _936  and  _937
REMARK  284  A    between atoms: _936  and  _939
REMARK  285  A    between atoms: _939  and  _940
REMARK  286  A    between atoms: _940  and  _941
REMARK  287  A    between atoms: _950  and  _951
REMARK  288  A    between atoms: _951  and  _952
REMARK  289  A    between atoms: _951  and  _954
REMARK  290  A    between atoms: _954  and  _955
REMARK  291  A    between atoms: _955  and  _956
REMARK  292  A    between atoms: _955  and  _957
REMARK  293  A    between atoms: _969  and  _970
REMARK  294  A    between atoms: _970  and  _971
REMARK  295  A    between atoms: _970  and  _973
REMARK  296  A    between atoms: _973  and  _974
REMARK  297  A    between atoms: _986  and  _987
REMARK  298  A    between atoms: _987  and  _988
REMARK  299  A    between atoms: _987  and  _990
REMARK  300  A    between atoms: _990  and  _991
REMARK  301  A    between atoms: _990  and  _992
REMARK  302  A    between atoms: _991  and  _993
REMARK  303  A    between atoms: _1005  and  _1006
REMARK  304  A    between atoms: _1006  and  _1007
REMARK  305  A    between atoms: _1006  and  _1009
REMARK  306  A    between atoms: _1009  and  _1010
REMARK  307  A    between atoms: _1019  and  _1020
REMARK  308  A    between atoms: _1020  and  _1021
REMARK  309  A    between atoms: _1020  and  _1023
REMARK  310  A    between atoms: _1023  and  _1024
REMARK  311  A    between atoms: _1024  and  _1025
REMARK  312  A    between atoms: _1024  and  _1026
REMARK  313  A    between atoms: _1038  and  _1039
REMARK  314  A    between atoms: _1039  and  _1040
REMARK  315  A    between atoms: _1039  and  _1042
REMARK  316  A    between atoms: _1042  and  _1043
REMARK  317  A    between atoms: _1042  and  _1044
REMARK  318  A    between atoms: _1043  and  _1045
REMARK  319  A    between atoms: _1058  and  _1059
REMARK  320  A    between atoms: _1071  and  _1072
REMARK  321  A    between atoms: _1072  and  _1073
REMARK  322  A    between atoms: _1072  and  _1075
REMARK  323  A    between atoms: _1075  and  _1076
REMARK  324  A    between atoms: _1085  and  _1086
REMARK  325  A    between atoms: _1086  and  _1087
REMARK  326  A    between atoms: _1086  and  _1089
REMARK  327  A    between atoms: _1089  and  _1090
REMARK  328  A    between atoms: _1090  and  _1091
REMARK  329  A    between atoms: _1091  and  _1092
REMARK  330  A    between atoms: _1092  and  _1093
REMARK  331  A    between atoms: _1107  and  _1108
REMARK  332  A    between atoms: _1108  and  _1109
REMARK  333  A    between atoms: _1108  and  _1111
REMARK  334  A    between atoms: _1111  and  _1112
REMARK  335  A    between atoms: _1112  and  _1113
REMARK  336  A    between atoms: _1124  and  _1125
REMARK  337  A    between atoms: _1125  and  _1126
REMARK  338  A    between atoms: _1125  and  _1128
REMARK  339  A    between atoms: _1128  and  _1129
REMARK  340  A    between atoms: _1136  and  _1137
REMARK  341  A    between atoms: _1137  and  _1138
REMARK  342  A    between atoms: _1137  and  _1140
REMARK  343  A    between atoms: _1140  and  _1141
REMARK  344  A    between atoms: _1141  and  _1142
REMARK  345  A    between atoms: _1142  and  _1143
REMARK  346  A    between atoms: _1160  and  _1161
REMARK  347  A    between atoms: _1161  and  _1162
REMARK  348  A    between atoms: _1161  and  _1164
REMARK  349  A    between atoms: _1164  and  _1165
REMARK  350  A    between atoms: _1164  and  _1166
REMARK  351  A    between atoms: _1174  and  _1175
REMARK  352  A    between atoms: _1175  and  _1176
REMARK  353  A    between atoms: _1175  and  _1178
REMARK  354  A    between atoms: _1178  and  _1179
REMARK  355  A    between atoms: _1179  and  _1180
REMARK  356  A    between atoms: _1179  and  _1181
REMARK  357  A    between atoms: _1193  and  _1194
REMARK  358  A    between atoms: _1194  and  _1195
REMARK  359  A    between atoms: _1194  and  _1197
REMARK  360  A    between atoms: _1197  and  _1198
REMARK  361  A    between atoms: _1197  and  _1199
REMARK  362  A    between atoms: _1207  and  _1208
REMARK  363  A    between atoms: _1208  and  _1209
REMARK  364  A    between atoms: _1208  and  _1211
REMARK  365  A    between atoms: _1211  and  _1212
REMARK  366  A    between atoms: _1211  and  _1213
REMARK  367  A    between atoms: _1212  and  _1214
REMARK  368  A    between atoms: _1226  and  _1227
REMARK  369  A    between atoms: _1227  and  _1228
REMARK  370  A    between atoms: _1227  and  _1230
REMARK  371  A    between atoms: _1230  and  _1231
REMARK  372  A    between atoms: _1230  and  _1232
REMARK  373  A    between atoms: _1242  and  _1243
REMARK  374  A    between atoms: _1243  and  _1244
REMARK  375  A    between atoms: _1243  and  _1246
REMARK  376  A    between atoms: _1246  and  _1247
REMARK  377  A    between atoms: _1254  and  _1255
REMARK  378  A    between atoms: _1255  and  _1256
REMARK  379  A    between atoms: _1255  and  _1258
REMARK  380  A    between atoms: _1258  and  _1259
REMARK  381  A    between atoms: _1258  and  _1260
REMARK  382  A    between atoms: _1268  and  _1269
REMARK  383  A    between atoms: _1269  and  _1270
REMARK  384  A    between atoms: _1275  and  _1276
REMARK  385  A    between atoms: _1276  and  _1277
REMARK  386  A    between atoms: _1276  and  _1279
REMARK  387  A    between atoms: _1279  and  _1280
REMARK  388  A    between atoms: _1279  and  _1281
REMARK  389  A    between atoms: _1280  and  _1282
REMARK  390  A    between atoms: _1294  and  _1295
REMARK  391  A    between atoms: _1295  and  _1296
REMARK  392  A    between atoms: _1301  and  _1302
REMARK  393  A    between atoms: _1302  and  _1303
REMARK  394  A    between atoms: _1302  and  _1305
REMARK  395  A    between atoms: _1305  and  _1306
REMARK  396  A    between atoms: _1306  and  _1307
REMARK  397  A    between atoms: _1307  and  _1308
REMARK  398  A    between atoms: _1318  and  _1319
REMARK  399  A    between atoms: _1319  and  _1320
REMARK  400  A    between atoms: _1319  and  _1322
REMARK  401  A    between atoms: _1322  and  _1323
REMARK  402  A    between atoms: _1322  and  _1324
REMARK  403  A    between atoms: _1332  and  _1333
REMARK  404  A    between atoms: _1333  and  _1334
REMARK  405  A    between atoms: _1333  and  _1336
REMARK  406  A    between atoms: _1336  and  _1337
REMARK  407  A    between atoms: _1337  and  _1338
REMARK  408  A    between atoms: _1338  and  _1339
REMARK  409  A    between atoms: _1339  and  _1340
REMARK  410  A    between atoms: _1354  and  _1355
REMARK  411  A    between atoms: _1355  and  _1356
REMARK  412  A    between atoms: _1355  and  _1358
REMARK  413  A    between atoms: _1364  and  _1365
REMARK  414  A    between atoms: _1365  and  _1366
REMARK  415  A    between atoms: _1365  and  _1368
REMARK  416  A    between atoms: _1368  and  _1369
REMARK  417  A    between atoms: _1376  and  _1377
REMARK  418  A    between atoms: _1377  and  _1378
REMARK  419  A    between atoms: _1377  and  _1380
REMARK  420  A    between atoms: _1380  and  _1381
REMARK  421  A    between atoms: _1381  and  _1382
REMARK  422  A    between atoms: _1381  and  _1383
REMARK  423  A    between atoms: _1395  and  _1396
REMARK  424  A    between atoms: _1396  and  _1399
REMARK  425  A    between atoms: _1399  and  _1400
REMARK  426  A    between atoms: _1399  and  _1401
REMARK  427  A    between atoms: _1400  and  _1402
REMARK  428  A    between atoms: _1422  and  _1425
REMARK  429  A    between atoms: _1424  and  _1428
REMARK  430  A    between atoms: _1425  and  _1427
REMARK  431  A    between atoms: _1443  and  _1444
REMARK  432  A    between atoms: _1443  and  _1446
REMARK  433  A    between atoms: _1446  and  _1447
REMARK  434  A    between atoms: _1457  and  _1458
REMARK  435  A    between atoms: _1458  and  _1459
REMARK  436  A    between atoms: _1458  and  _1461
REMARK  437  A    between atoms: _1461  and  _1462
REMARK  438  A    between atoms: _1462  and  _1463
REMARK  439  A    between atoms: _1462  and  _1464
REMARK  440  A    between atoms: _1476  and  _1477
REMARK  441  A    between atoms: _1477  and  _1478
REMARK  442  A    between atoms: _1483  and  _1484
REMARK  443  A    between atoms: _1484  and  _1485
REMARK  444  A    between atoms: _1484  and  _1487
REMARK  445  A    between atoms: _1487  and  _1488
REMARK  446  A    between atoms: _1487  and  _1489
REMARK  447  A    between atoms: _1497  and  _1498
REMARK  448  A    between atoms: _1498  and  _1499
REMARK  449  A    between atoms: _1498  and  _1501
REMARK  450  A    between atoms: _1501  and  _1502
REMARK  451  A    between atoms: _1501  and  _1503
REMARK  452  A    between atoms: _1502  and  _1504
REMARK  453  A    between atoms: _1516  and  _1517
REMARK  454  A    between atoms: _1517  and  _1518
REMARK  455  A    between atoms: _1517  and  _1520
REMARK  456  A    between atoms: _1526  and  _1527
REMARK  457  A    between atoms: _1527  and  _1528
REMARK  458  A    between atoms: _1527  and  _1530
REMARK  459  A    between atoms: _1530  and  _1531
REMARK  460  A    between atoms: _1531  and  _1532
REMARK  461  A    between atoms: _1532  and  _1533
REMARK  462  A    between atoms: _1533  and  _1534
REMARK  463  A    between atoms: _1548  and  _1549
REMARK  464  A    between atoms: _1549  and  _1550
REMARK  465  A    between atoms: _1549  and  _1552
REMARK  466  A    between atoms: _1552  and  _1553
REMARK  467  A    between atoms: _1559  and  _1560
REMARK  468  A    between atoms: _1560  and  _1561
REMARK  469  A    between atoms: _1566  and  _1567
REMARK  470  A    between atoms: _1567  and  _1568
REMARK  471  A    between atoms: _1567  and  _1570
REMARK  472  A    between atoms: _1570  and  _1571
REMARK  473  A    between atoms: _1570  and  _1572
REMARK  474  A    between atoms: _1580  and  _1581
REMARK  475  A    between atoms: _1581  and  _1582
REMARK  476  A    between atoms: _1581  and  _1584
REMARK  477  A    between atoms: _1584  and  _1585
REMARK  478  A    between atoms: _1585  and  _1586
REMARK  479  A    between atoms: _1586  and  _1587
REMARK  480  A    between atoms: _1587  and  _1588
REMARK  481  A    between atoms: _1602  and  _1603
REMARK  482  A    between atoms: _1603  and  _1604
REMARK  483  A    between atoms: _1603  and  _1606
REMARK  484  A    between atoms: _1612  and  _1613
REMARK  485  A    between atoms: _1613  and  _1614
REMARK  486  A    between atoms: _1613  and  _1616
REMARK  487  A    between atoms: _1616  and  _1617
REMARK  488  A    between atoms: _1632  and  _1633
REMARK  489  A    between atoms: _1633  and  _1634
REMARK  490  A    between atoms: _1633  and  _1636
REMARK  491  A    between atoms: _1636  and  _1637
REMARK  492  A    between atoms: _1637  and  _1638
REMARK  493  A    between atoms: _1638  and  _1639
REMARK  494  A    between atoms: _1649  and  _1650
REMARK  495  A    between atoms: _1650  and  _1651
REMARK  496  A    between atoms: _1650  and  _1653
REMARK  497  A    between atoms: _1653  and  _1654
REMARK  498  A    between atoms: _1654  and  _1655
REMARK  499  A    between atoms: _1664  and  _1665
REMARK  500  A    between atoms: _1665  and  _1666
REMARK  501  A    between atoms: _1665  and  _1668
REMARK  502  A    between atoms: _1674  and  _1675
REMARK  503  A    between atoms: _1675  and  _1676
REMARK  504  A    between atoms: _1675  and  _1678
REMARK  505  A    between atoms: _1678  and  _1679
REMARK  506  A    between atoms: _1679  and  _1680
REMARK  507  A    between atoms: _1679  and  _1681
REMARK  508  A    between atoms: _1693  and  _1694
REMARK  509  A    between atoms: _1694  and  _1695
REMARK  510  A    between atoms: _1694  and  _1697
REMARK  511  A    between atoms: _1697  and  _1698
REMARK  512  A    between atoms: _1698  and  _1699
REMARK  513  A    between atoms: _1710  and  _1711
REMARK  514  A    between atoms: _1711  and  _1712
REMARK  515  A    between atoms: _1711  and  _1714
REMARK  516  A    between atoms: _1720  and  _1721
REMARK  517  A    between atoms: _1721  and  _1722
REMARK  518  A    between atoms: _1727  and  _1728
REMARK  519  A    between atoms: _1728  and  _1729
REMARK  520  A    between atoms: _1728  and  _1731
REMARK  521  A    between atoms: _1737  and  _1738
REMARK  522  A    between atoms: _1738  and  _1739
REMARK  523  A    between atoms: _1738  and  _1741
REMARK  524  A    between atoms: _1741  and  _1742
REMARK  525  A    between atoms: _1749  and  _1750
REMARK  526  A    between atoms: _1750  and  _1751
REMARK  527  A    between atoms: _1750  and  _1753
REMARK  528  A    between atoms: _1753  and  _1754
REMARK  529  A    between atoms: _1753  and  _1755
REMARK  530  A    between atoms: _1754  and  _1756
REMARK  531  A    between atoms: _1768  and  _1769
REMARK  532  A    between atoms: _1769  and  _1772
REMARK  533  A    between atoms: _1772  and  _1773
REMARK  534  A    between atoms: _1791  and  _1793
REMARK  535  A    between atoms: _1792  and  _1794
REMARK  536  A    between atoms: _1814  and  _1815
REMARK  537  A    between atoms: _1814  and  _1817
REMARK  538  A    between atoms: _1817  and  _1818
REMARK  539  A    between atoms: _1817  and  _1819
REMARK  540  A    between atoms: _1818  and  _1820
REMARK  541  A    between atoms: _1833  and  _1834
REMARK  542  A    between atoms: _1834  and  _1835
REMARK  543  A    between atoms: _1840  and  _1841
REMARK  544  A    between atoms: _1841  and  _1842
REMARK  545  A    between atoms: _1841  and  _1844
REMARK  546  A    between atoms: _1844  and  _1845
REMARK  547  A    between atoms: _1845  and  _1846
REMARK  548  A    between atoms: _1857  and  _1858
REMARK  549  A    between atoms: _1858  and  _1859
REMARK  550  A    between atoms: _1858  and  _1861
REMARK  551  A    between atoms: _1861  and  _1862
REMARK  552  A    between atoms: _1877  and  _1878
REMARK  553  A    between atoms: _1878  and  _1879
REMARK  554  A    between atoms: _1884  and  _1885
REMARK  555  A    between atoms: _1885  and  _1886
REMARK  556  A    between atoms: _1885  and  _1888
REMARK  557  A    between atoms: _1888  and  _1889
REMARK  558  A    between atoms: _1888  and  _1890
REMARK  559  A    between atoms: _1900  and  _1901
REMARK  560  A    between atoms: _1901  and  _1902
REMARK  561  A    between atoms: _1907  and  _1908
REMARK  562  A    between atoms: _1908  and  _1909
REMARK  563  A    between atoms: _1908  and  _1911
REMARK  564  A    between atoms: _1911  and  _1912
REMARK  565  A    between atoms: _1927  and  _1928
REMARK  566  A    between atoms: _1928  and  _1929
REMARK  567  A    between atoms: _1928  and  _1931
REMARK  568  A    between atoms: _1931  and  _1932
REMARK  569  A    between atoms: _1937  and  _1938
REMARK  570  A    between atoms: _1948  and  _1949
REMARK  571  A    between atoms: _1949  and  _1950
REMARK  572  A    between atoms: _1949  and  _1952
REMARK  573  A    between atoms: _1952  and  _1953
REMARK  574  A    between atoms: _1959  and  _1960
REMARK  575  A    between atoms: _1960  and  _1961
REMARK  576  A    between atoms: _1960  and  _1963
REMARK  577  A    between atoms: _1969  and  _1970
REMARK  578  A    between atoms: _1970  and  _1971
REMARK  579  A    between atoms: _1970  and  _1973
REMARK  580  A    between atoms: _1973  and  _1974
REMARK  581  A    between atoms: _1979  and  _1980
REMARK  582  A    between atoms: _1990  and  _1991
REMARK  583  A    between atoms: _1991  and  _1992
REMARK  584  A    between atoms: _1991  and  _1994
REMARK  585  A    between atoms: _1994  and  _1995
REMARK  586  A    between atoms: _1995  and  _1996
REMARK  587  A    between atoms: _1995  and  _1997
REMARK  588  A    between atoms: _2009  and  _2010
REMARK  589  A    between atoms: _2010  and  _2011
REMARK  590  A    between atoms: _2010  and  _2013
REMARK  591  A    between atoms: _2013  and  _2014
REMARK  592  A    between atoms: _2013  and  _2015
REMARK  593  A    between atoms: _2025  and  _2026
REMARK  594  A    between atoms: _2026  and  _2027
REMARK  595  A    between atoms: _2026  and  _2029
REMARK  596  A    between atoms: _2035  and  _2036
REMARK  597  A    between atoms: _2036  and  _2037
REMARK  598  A    between atoms: _2036  and  _2039
REMARK  599  A    between atoms: _2039  and  _2040
REMARK  600  A    between atoms: _2040  and  _2041
REMARK  601  A    between atoms: _2050  and  _2051
REMARK  602  A    between atoms: _2051  and  _2052
REMARK  603  A    between atoms: _2051  and  _2054
REMARK  604  A    between atoms: _2054  and  _2055
REMARK  605  A    between atoms: _2055  and  _2056
REMARK  606  A    between atoms: _2056  and  _2057
REMARK  607  A    between atoms: _2057  and  _2058
REMARK  608  A    between atoms: _2072  and  _2073
REMARK  609  A    between atoms: _2073  and  _2074
REMARK  610  A    between atoms: _2073  and  _2076
REMARK  611  A    between atoms: _2076  and  _2077
REMARK  612  A    between atoms: _2076  and  _2078
REMARK  613  A    between atoms: _2088  and  _2089
REMARK  614  A    between atoms: _2089  and  _2090
REMARK  615  A    between atoms: _2089  and  _2092
REMARK  616  A    between atoms: _2092  and  _2093
REMARK  617  A    between atoms: _2092  and  _2094
REMARK  618  A    between atoms: _2102  and  _2103
REMARK  619  A    between atoms: _2103  and  _2104
REMARK  620  A    between atoms: _2103  and  _2106
REMARK  621  A    between atoms: _2106  and  _2107
REMARK  622  A    between atoms: _2106  and  _2108
REMARK  623  A    between atoms: _2118  and  _2119
REMARK  624  A    between atoms: _2119  and  _2120
REMARK  625  A    between atoms: _2119  and  _2122
REMARK  626  A    between atoms: _2122  and  _2123
REMARK  627  A    between atoms: _2122  and  _2124
REMARK  628  A    between atoms: _2123  and  _2125
REMARK  629  A    between atoms: _2137  and  _2138
REMARK  630  A    between atoms: _2138  and  _2139
REMARK  631  A    between atoms: _2138  and  _2141
REMARK  632  A    between atoms: _2141  and  _2142
REMARK  633  A    between atoms: _2141  and  _2143
REMARK  634  A    between atoms: _2151  and  _2152
REMARK  635  A    between atoms: _2152  and  _2153
REMARK  636  A    between atoms: _2152  and  _2155
REMARK  637  A    between atoms: _2155  and  _2156
REMARK  638  A    between atoms: _2156  and  _2157
REMARK  639  A    between atoms: _2157  and  _2158
REMARK  640  A    between atoms: _2158  and  _2159
REMARK  641  A    between atoms: _2173  and  _2174
REMARK  642  A    between atoms: _2174  and  _2175
REMARK  643  A    between atoms: _2174  and  _2177
REMARK  644  A    between atoms: _2177  and  _2178
REMARK  645  A    between atoms: _2190  and  _2191
REMARK  646  A    between atoms: _2191  and  _2192
REMARK  647  A    between atoms: _2191  and  _2194
REMARK  648  A    between atoms: _2194  and  _2195
REMARK  649  A    between atoms: _2204  and  _2205
REMARK  650  A    between atoms: _2205  and  _2206
REMARK  651  A    between atoms: _2205  and  _2208
REMARK  652  A    between atoms: _2208  and  _2209
REMARK  653  A    between atoms: _2216  and  _2217
REMARK  654  A    between atoms: _2217  and  _2218
REMARK  655  A    between atoms: _2217  and  _2220
REMARK  656  A    between atoms: _2220  and  _2221
REMARK  657  A    between atoms: _2228  and  _2229
REMARK  658  A    between atoms: _2229  and  _2230
REMARK  659  A    between atoms: _2229  and  _2232
REMARK  660  A    between atoms: _2232  and  _2233
REMARK  661  A    between atoms: _2233  and  _2234
REMARK  662  A    between atoms: _2243  and  _2244
REMARK  663  A    between atoms: _2244  and  _2245
REMARK  664  A    between atoms: _2244  and  _2247
REMARK  665  A    between atoms: _2247  and  _2248
REMARK  666  A    between atoms: _2248  and  _2249
REMARK  667  A    between atoms: _2260  and  _2261
REMARK  668  A    between atoms: _2261  and  _2262
REMARK  669  A    between atoms: _2261  and  _2264
REMARK  670  A    between atoms: _2264  and  _2265
REMARK  671  A    between atoms: _2270  and  _2271
REMARK  672  A    between atoms: _2281  and  _2282
REMARK  673  A    between atoms: _2282  and  _2283
REMARK  674  A    between atoms: _2282  and  _2285
REMARK  675  A    between atoms: _2291  and  _2292
REMARK  676  A    between atoms: _2292  and  _2293
REMARK  677  A    between atoms: _2292  and  _2295
REMARK  678  A    between atoms: _2295  and  _2296
REMARK  679  A    between atoms: _2315  and  _2316
REMARK  680  A    between atoms: _2316  and  _2317
REMARK  681  A    between atoms: _2316  and  _2319
REMARK  682  A    between atoms: _2319  and  _2320
REMARK  683  A    between atoms: _2320  and  _2321
REMARK  684  A    between atoms: _2330  and  _2331
REMARK  685  A    between atoms: _2331  and  _2332
REMARK  686  A    between atoms: _2331  and  _2334
REMARK  687  A    between atoms: _2334  and  _2335
REMARK  688  A    between atoms: _2341  and  _2342
REMARK  689  A    between atoms: _2342  and  _2343
REMARK  690  A    between atoms: _2342  and  _2345
REMARK  691  A    between atoms: _2345  and  _2346
REMARK  692  A    between atoms: _2352  and  _2353
REMARK  693  A    between atoms: _2353  and  _2354
REMARK  694  A    between atoms: _2353  and  _2356
REMARK  695  A    between atoms: _2362  and  _2363
REMARK  696  A    between atoms: _2363  and  _2364
REMARK  697  A    between atoms: _2369  and  _2370
REMARK  698  A    between atoms: _2370  and  _2371
REMARK  699  A    between atoms: _2376  and  _2377
REMARK  700  A    between atoms: _2377  and  _2378
REMARK  701  A    between atoms: _2377  and  _2380
REMARK  702  A    between atoms: _2380  and  _2381
REMARK  703  A    between atoms: _2387  and  _2388
REMARK  704  A    between atoms: _2388  and  _2389
REMARK  705  A    between atoms: _2388  and  _2391
REMARK  706  A    between atoms: _2391  and  _2392
REMARK  707  A    between atoms: _2407  and  _2408
REMARK  708  A    between atoms: _2408  and  _2409
REMARK  709  A    between atoms: _2408  and  _2411
REMARK  710  A    between atoms: _2411  and  _2412
REMARK  711  A    between atoms: _2411  and  _2413
REMARK  712  A    between atoms: _2421  and  _2422
REMARK  713  A    between atoms: _2422  and  _2423
REMARK  714  A    between atoms: _2422  and  _2425
REMARK  715  A    between atoms: _2425  and  _2426
REMARK  716  A    between atoms: _2425  and  _2427
REMARK  717  A    between atoms: _2437  and  _2438
REMARK  718  A    between atoms: _2438  and  _2439
REMARK  719  A    between atoms: _2438  and  _2441
REMARK  720  A    between atoms: _2441  and  _2442
REMARK  721  A    between atoms: _2442  and  _2443
REMARK  722  A    between atoms: _2443  and  _2444
REMARK  723  A    between atoms: _2461  and  _2462
REMARK  724  A    between atoms: _2462  and  _2463
REMARK  725  A    between atoms: _2462  and  _2465
REMARK  726  A    between atoms: _2465  and  _2466
REMARK  727  A    between atoms: _2465  and  _2467
REMARK  728  A    between atoms: _2475  and  _2476
REMARK  729  A    between atoms: _2476  and  _2477
REMARK  730  A    between atoms: _2476  and  _2479
REMARK  731  A    between atoms: _2479  and  _2480
REMARK  732  A    between atoms: _2487  and  _2488
REMARK  733  A    between atoms: _2488  and  _2489
REMARK  734  A    between atoms: _2488  and  _2491
REMARK  735  A    between atoms: _2491  and  _2492
REMARK  736  A    between atoms: _2491  and  _2493
REMARK  737  A    between atoms: _2501  and  _2502
REMARK  738  A    between atoms: _2502  and  _2503
REMARK  739  A    between atoms: _2508  and  _2509
REMARK  740  A    between atoms: _2509  and  _2510
REMARK  741  A    between atoms: _2509  and  _2512
REMARK  742  A    between atoms: _2512  and  _2513
REMARK  743  A    between atoms: _2513  and  _2514
REMARK  744  A    between atoms: _2524  and  _2525
REMARK  745  A    between atoms: _2537  and  _2538
REMARK  746  A    between atoms: _2538  and  _2539
REMARK  747  A    between atoms: _2538  and  _2541
REMARK  748  A    between atoms: _2541  and  _2542
REMARK  749  A    between atoms: _2542  and  _2543
REMARK  750  A    between atoms: _2543  and  _2544
REMARK  751  A    between atoms: _2554  and  _2555
REMARK  752  A    between atoms: _2555  and  _2556
REMARK  753  A    between atoms: _2561  and  _2562
REMARK  754  A    between atoms: _2562  and  _2563
REMARK  755  A    between atoms: _2562  and  _2565
REMARK  756  A    between atoms: _2565  and  _2566
REMARK  757  A    between atoms: _2566  and  _2567
REMARK  758  A    between atoms: _2567  and  _2568
REMARK  759  A    between atoms: _2585  and  _2586
REMARK  760  A    between atoms: _2586  and  _2587
REMARK  761  A    between atoms: _2592  and  _2593
REMARK  762  A    between atoms: _2593  and  _2594
REMARK  763  A    between atoms: _2593  and  _2596
REMARK  764  A    between atoms: _2596  and  _2597
REMARK  765  A    between atoms: _2596  and  _2598
REMARK  766  A    between atoms: _2606  and  _2607
REMARK  767  A    between atoms: _2607  and  _2608
REMARK  768  A    between atoms: _2607  and  _2610
REMARK  769  A    between atoms: _2610  and  _2611
REMARK  770  A    between atoms: _2611  and  _2612
REMARK  771  A    between atoms: _2612  and  _2613
REMARK  772  A    between atoms: _2613  and  _2614
REMARK  773  A    between atoms: _2628  and  _2629
REMARK  774  A    between atoms: _2629  and  _2630
REMARK  775  A    between atoms: _2629  and  _2632
REMARK  776  A    between atoms: _2632  and  _2633
REMARK  777  A    between atoms: _2632  and  _2634
REMARK  778  A    between atoms: _2644  and  _2645
REMARK  779  A    between atoms: _2645  and  _2646
REMARK  780  A    between atoms: _2645  and  _2648
REMARK  781  A    between atoms: _2648  and  _2649
REMARK  782  A    between atoms: _2648  and  _2650
REMARK  783  A    between atoms: _2649  and  _2651
REMARK  784  A    between atoms: _2663  and  _2664
REMARK  785  A    between atoms: _2664  and  _2665
REMARK  786  A    between atoms: _2664  and  _2667
REMARK  787  A    between atoms: _2667  and  _2668
REMARK  788  A    between atoms: _2668  and  _2669
REMARK  789  A    between atoms: _2668  and  _2670
REMARK  790  A    between atoms: _2682  and  _2683
REMARK  791  A    between atoms: _2683  and  _2684
REMARK  792  A    between atoms: _2683  and  _2686
REMARK  793  A    between atoms: _2686  and  _2687
REMARK  794  A    between atoms: _2699  and  _2700
REMARK  795  A    between atoms: _2700  and  _2701
REMARK  796  A    between atoms: _2700  and  _2703
REMARK  797  A    between atoms: _2703  and  _2704
REMARK  798  A    between atoms: _2704  and  _2705
REMARK  799  A    between atoms: _2704  and  _2706
REMARK  800  A    between atoms: _2718  and  _2719
REMARK  801  A    between atoms: _2719  and  _2720
REMARK  802  A    between atoms: _2719  and  _2722
REMARK  803  A    between atoms: _2722  and  _2723
REMARK  804  A    between atoms: _2723  and  _2724
REMARK  805  A    between atoms: _2724  and  _2725
REMARK  806  A    between atoms: _2725  and  _2726
REMARK  807  A    between atoms: _2740  and  _2741
REMARK  808  A    between atoms: _2741  and  _2742
REMARK  809  A    between atoms: _2741  and  _2744
REMARK  810  A    between atoms: _2744  and  _2745
REMARK  811  A    between atoms: _2745  and  _2746
REMARK  812  A    between atoms: _2755  and  _2756
REMARK  813  A    between atoms: _2756  and  _2757
REMARK  814  A    between atoms: _2756  and  _2759
REMARK  815  A    between atoms: _2759  and  _2760
REMARK  816  A    between atoms: _2767  and  _2768
REMARK  817  A    between atoms: _2768  and  _2769
REMARK  818  A    between atoms: _2768  and  _2771
REMARK  819  A    between atoms: _2771  and  _2772
REMARK  820  A    between atoms: _2772  and  _2773
REMARK  821  A    between atoms: _2784  and  _2785
REMARK  822  A    between atoms: _2785  and  _2786
REMARK  823  A    between atoms: _2785  and  _2788
REMARK  824  A    between atoms: _2788  and  _2789
REMARK  825  A    between atoms: _2788  and  _2790
REMARK  826  A    between atoms: _2798  and  _2799
REMARK  827  A    between atoms: _2799  and  _2800
REMARK  828  A    between atoms: _2799  and  _2802
REMARK  829  A    between atoms: _2802  and  _2803
REMARK  830  A    between atoms: _2803  and  _2804
REMARK  831  A    between atoms: _2813  and  _2814
REMARK  832  A    between atoms: _2814  and  _2815
REMARK  833  A    between atoms: _2814  and  _2817
REMARK  834  A    between atoms: _2817  and  _2818
REMARK  835  A    between atoms: _2823  and  _2824
REMARK  836  A    between atoms: _2834  and  _2835
REMARK  837  A    between atoms: _2835  and  _2838
REMARK  838  A    between atoms: _2838  and  _2839
REMARK  839  A    between atoms: _2839  and  _2840
REMARK  840  A    between atoms: _2839  and  _2841
REMARK  841  A    between atoms: _2884  and  _2885
REMARK  842  A    between atoms: _2884  and  _2887
REMARK  843  A    between atoms: _2887  and  _2888
REMARK  844  A    between atoms: _2888  and  _2889
REMARK  845  A    between atoms: _2899  and  _2900
REMARK  846  A    between atoms: _2900  and  _2901
REMARK  847  A    between atoms: _2900  and  _2903
REMARK  848  A    between atoms: _2903  and  _2904
REMARK  849  A    between atoms: _2904  and  _2905
REMARK  850  A    between atoms: _2905  and  _2906
REMARK  851  A    between atoms: _2923  and  _2924
REMARK  852  A    between atoms: _2924  and  _2925
REMARK  853  A    between atoms: _2924  and  _2927
REMARK  854  A    between atoms: _2927  and  _2928
REMARK  855  A    between atoms: _2928  and  _2929
REMARK  856  A    between atoms: _2929  and  _2930
REMARK  857  A    between atoms: _2947  and  _2948
REMARK  858  A    between atoms: _2948  and  _2949
REMARK  859  A    between atoms: _2948  and  _2951
REMARK  860  A    between atoms: _2951  and  _2952
REMARK  861  A    between atoms: _2951  and  _2953
REMARK  862  A    between atoms: _2952  and  _2954
REMARK  863  A    between atoms: _2966  and  _2967
REMARK  864  A    between atoms: _2967  and  _2968
REMARK  865  A    between atoms: _2967  and  _2970
REMARK  866  A    between atoms: _2970  and  _2971
REMARK  867  A    between atoms: _2971  and  _2972
REMARK  868  A    between atoms: _2972  and  _2973
REMARK  869  A    between atoms: _2973  and  _2974
REMARK  870  A    between atoms: _2988  and  _2989
REMARK  871  A    between atoms: _2989  and  _2990
REMARK  872  A    between atoms: _2989  and  _2992
REMARK  873  A    between atoms: _2992  and  _2993
REMARK  874  A    between atoms: _2993  and  _2994
REMARK  875  A    between atoms: _3003  and  _3004
REMARK  876  A    between atoms: _3004  and  _3005
REMARK  877  A    between atoms: _3004  and  _3007
REMARK  878  A    between atoms: _3007  and  _3008
REMARK  879  A    between atoms: _3007  and  _3009
REMARK  880  A    between atoms: _3008  and  _3010
REMARK  881  A    between atoms: _3022  and  _3023
REMARK  882  A    between atoms: _3023  and  _3024
REMARK  883  A    between atoms: _3023  and  _3026
REMARK  884  A    between atoms: _3026  and  _3027
REMARK  885  A    between atoms: _3026  and  _3028
REMARK  886  A    between atoms: _3038  and  _3039
REMARK  887  A    between atoms: _3039  and  _3040
REMARK  888  A    between atoms: _3039  and  _3042
REMARK  889  A    between atoms: _3042  and  _3043
REMARK  890  A    between atoms: _3043  and  _3044
REMARK  891  A    between atoms: _3044  and  _3045
REMARK  892  A    between atoms: _3045  and  _3046
REMARK  893  A    between atoms: _3060  and  _3061
REMARK  894  A    between atoms: _3061  and  _3062
REMARK  895  A    between atoms: _3061  and  _3064
REMARK  896  A    between atoms: _3064  and  _3065
REMARK  897  A    between atoms: _3065  and  _3066
REMARK  898  A    between atoms: _3066  and  _3067
REMARK  899  A    between atoms: _3067  and  _3068
REMARK  900  A    between atoms: _3082  and  _3083
REMARK  901  A    between atoms: _3083  and  _3084
REMARK  902  A    between atoms: _3083  and  _3086
REMARK  903  A    between atoms: _3086  and  _3087
REMARK  904  A    between atoms: _3099  and  _3100
REMARK  905  A    between atoms: _3100  and  _3101
REMARK  906  A    between atoms: _3100  and  _3103
REMARK  907  A    between atoms: _3103  and  _3104
REMARK  908  A    between atoms: _3110  and  _3111
REMARK  909  A    between atoms: _3111  and  _3112
REMARK  910  A    between atoms: _3111  and  _3114
REMARK  911  A    between atoms: _3114  and  _3115
REMARK  912  A    between atoms: _3115  and  _3116
REMARK  913  A    between atoms: _3127  and  _3128
REMARK  914  A    between atoms: _3128  and  _3129
REMARK  915  A    between atoms: _3128  and  _3131
REMARK  916  A    between atoms: _3131  and  _3132
REMARK  917  A    between atoms: _3147  and  _3148
REMARK  918  A    between atoms: _3148  and  _3149
REMARK  919  A    between atoms: _3148  and  _3151
REMARK  920  A    between atoms: _3151  and  _3152
REMARK  921  A    between atoms: _3151  and  _3153
REMARK  922  A    between atoms: _3152  and  _3154
REMARK  923  A    between atoms: _3166  and  _3167
REMARK  924  A    between atoms: _3167  and  _3168
REMARK  925  A    between atoms: _3173  and  _3174
REMARK  926  A    between atoms: _3174  and  _3175
REMARK  927  A    between atoms: _3174  and  _3177
REMARK  928  A    between atoms: _3177  and  _3178
REMARK  929  A    between atoms: _3183  and  _3184
REMARK  930  A    between atoms: _3195  and  _3196
REMARK  931  A    between atoms: _3208  and  _3209
REMARK  932  A    between atoms: _3209  and  _3210
REMARK  933  A    between atoms: _3209  and  _3212
REMARK  934  A    between atoms: _3212  and  _3213
REMARK  935  A    between atoms: _3212  and  _3214
REMARK  936  A    between atoms: _3213  and  _3215
REMARK  937  A    between atoms: _3227  and  _3228
REMARK  938  A    between atoms: _3228  and  _3229
REMARK  939  A    between atoms: _3228  and  _3231
REMARK  940  A    between atoms: _3231  and  _3232
REMARK  941  A    between atoms: _3231  and  _3233
REMARK  942  A    between atoms: _3241  and  _3242
REMARK  943  A    between atoms: _3242  and  _3243
REMARK  944  A    between atoms: _3242  and  _3245
REMARK  945  A    between atoms: _3245  and  _3246
REMARK  946  A    between atoms: _3246  and  _3247
REMARK  947  A    between atoms: _3246  and  _3248
REMARK  948  A    between atoms: _3260  and  _3261
REMARK  949  A    between atoms: _3261  and  _3262
REMARK  950  A    between atoms: _3261  and  _3264
REMARK  951  A    between atoms: _3264  and  _3265
REMARK  952  A    between atoms: _3280  and  _3281
REMARK  953  A    between atoms: _3281  and  _3282
REMARK  954  A    between atoms: _3281  and  _3284
REMARK  955  A    between atoms: _3284  and  _3285
REMARK  956  A    between atoms: _3284  and  _3286
REMARK  957  A    between atoms: _3296  and  _3297
REMARK  958  A    between atoms: _3297  and  _3298
REMARK  959  A    between atoms: _3297  and  _3300
REMARK  960  A    between atoms: _3300  and  _3301
REMARK  961  A    between atoms: _3301  and  _3302
REMARK                            x       y       z     vdW  Elec       q    Type
REMARK                         _______ _______ _______ _____ _____    ______ ____
ROOT
ATOM      1  H   UNK     1     -10.180  19.147  40.876  0.00  0.00    +0.000 HD
ENDROOT
TORSDOF 0
REMARK  Name = /Users/mlugowska/PhD/ML_residence_time_prediction/protein_files/5J20_protein.pdb
REMARK  961 active torsions:
REMARK  status: ('A' for Active; 'I' for Inactive)
REMARK    1  A    between atoms: _2  and  _3
REMARK    2  A    between atoms: _2  and  _5
REMARK    3  A    between atoms: _10  and  _11
REMARK    4  A    between atoms: _11  and  _12
REMARK    5  A    between atoms: _11  and  _14
REMARK    6  A    between atoms: _14  and  _15
REMARK    7  A    between atoms: _14  and  _16
REMARK    8  A    between atoms: _26  and  _27
REMARK    9  A    between atoms: _27  and  _28
REMARK   10  A    between atoms: _27  and  _30
REMARK   11  A    between atoms: _30  and  _31
REMARK   12  A    between atoms: _31  and  _32
REMARK   13  A    between atoms: _41  and  _42
REMARK   14  A    between atoms: _42  and  _43
REMARK   15  A    between atoms: _42  and  _45
REMARK   16  A    between atoms: _45  and  _46
REMARK   17  A    between atoms: _45  and  _47
REMARK   18  A    between atoms: _55  and  _56
REMARK   19  A    between atoms: _56  and  _57
REMARK   20  A    between atoms: _56  and  _59
REMARK   21  A    between atoms: _59  and  _60
REMARK   22  A    between atoms: _75  and  _76
REMARK   23  A    between atoms: _76  and  _77
REMARK   24  A    between atoms: _76  and  _79
REMARK   25  A    between atoms: _85  and  _86
REMARK   26  A    between atoms: _86  and  _87
REMARK   27  A    between atoms: _86  and  _89
REMARK   28  A    between atoms: _89  and  _90
REMARK   29  A    between atoms: _105  and  _106
REMARK   30  A    between atoms: _106  and  _107
REMARK   31  A    between atoms: _106  and  _109
REMARK   32  A    between atoms: _109  and  _110
REMARK   33  A    between atoms: _110  and  _111
REMARK   34  A    between atoms: _122  and  _123
REMARK   35  A    between atoms: _123  and  _124
REMARK   36  A    between atoms: _123  and  _126
REMARK   37  A    between atoms: _132  and  _133
REMARK   38  A    between atoms: _133  and  _134
REMARK   39  A    between atoms: _133  and  _136
REMARK   40  A    between atoms: _136  and  _137
REMARK   41  A    between atoms: _137  and  _138
REMARK   42  A    between atoms: _147  and  _148
REMARK   43  A    between atoms: _148  and  _149
REMARK   44  A    between atoms: _148  and  _151
REMARK   45  A    between atoms: _151  and  _152
REMARK   46  A    between atoms: _151  and  _153
REMARK   47  A    between atoms: _152  and  _154
REMARK   48  A    between atoms: _166  and  _167
REMARK   49  A    between atoms: _167  and  _168
REMARK   50  A    between atoms: _167  and  _170
REMARK   51  A    between atoms: _176  and  _177
REMARK   52  A    between atoms: _177  and  _178
REMARK   53  A    between atoms: _177  and  _180
REMARK   54  A    between atoms: _180  and  _181
REMARK   55  A    between atoms: _181  and  _182
REMARK   56  A    between atoms: _193  and  _194
REMARK   57  A    between atoms: _194  and  _195
REMARK   58  A    between atoms: _194  and  _197
REMARK   59  A    between atoms: _197  and  _198
REMARK   60  A    between atoms: _198  and  _199
REMARK   61  A    between atoms: _198  and  _200
REMARK   62  A    between atoms: _212  and  _213
REMARK   63  A    between atoms: _213  and  _214
REMARK   64  A    between atoms: _213  and  _216
REMARK   65  A    between atoms: _216  and  _217
REMARK   66  A    between atoms: _217  and  _218
REMARK   67  A    between atoms: _218  and  _219
REMARK   68  A    between atoms: _229  and  _230
REMARK   69  A    between atoms: _230  and  _231
REMARK   70  A    between atoms: _230  and  _233
REMARK   71  A    between atoms: _233  and  _234
REMARK   72  A    between atoms: _240  and  _241
REMARK   73  A    between atoms: _241  and  _242
REMARK   74  A    between atoms: _241  and  _244
REMARK   75  A    between atoms: _244  and  _245
REMARK   76  A    between atoms: _245  and  _246
REMARK   77  A    between atoms: _245  and  _247
REMARK   78  A    between atoms: _259  and  _260
REMARK   79  A    between atoms: _260  and  _261
REMARK   80  A    between atoms: _260  and  _263
REMARK   81  A    between atoms: _263  and  _264
REMARK   82  A    between atoms: _263  and  _265
REMARK   83  A    between atoms: _264  and  _266
REMARK   84  A    between atoms: _278  and  _279
REMARK   85  A    between atoms: _279  and  _280
REMARK   86  A    between atoms: _279  and  _282
REMARK   87  A    between atoms: _282  and  _283
REMARK   88  A    between atoms: _282  and  _284
REMARK   89  A    between atoms: _283  and  _285
REMARK   90  A    between atoms: _297  and  _298
REMARK   91  A    between atoms: _298  and  _299
REMARK   92  A    between atoms: _298  and  _301
REMARK   93  A    between atoms: _301  and  _302
REMARK   94  A    between atoms: _311  and  _312
REMARK   95  A    between atoms: _312  and  _313
REMARK   96  A    between atoms: _312  and  _315
REMARK   97  A    between atoms: _315  and  _316
REMARK   98  A    between atoms: _315  and  _317
REMARK   99  A    between atoms: _325  and  _326
REMARK  100  A    between atoms: _326  and  _327
REMARK  101  A    between atoms: _326  and  _329
REMARK  102  A    between atoms: _329  and  _330
REMARK  103  A    between atoms: _345  and  _346
REMARK  104  A    between atoms: _346  and  _347
REMARK  105  A    between atoms: _346  and  _349
REMARK  106  A    between atoms: _349  and  _350
REMARK  107  A    between atoms: _355  and  _356
REMARK  108  A    between atoms: _366  and  _367
REMARK  109  A    between atoms: _367  and  _368
REMARK  110  A    between atoms: _367  and  _370
REMARK  111  A    between atoms: _370  and  _371
REMARK  112  A    between atoms: _377  and  _378
REMARK  113  A    between atoms: _378  and  _379
REMARK  114  A    between atoms: _378  and  _381
REMARK  115  A    between atoms: _381  and  _382
REMARK  116  A    between atoms: _391  and  _392
REMARK  117  A    between atoms: _392  and  _393
REMARK  118  A    between atoms: _392  and  _395
REMARK  119  A    between atoms: _395  and  _396
REMARK  120  A    between atoms: _396  and  _397
REMARK  121  A    between atoms: _397  and  _398
REMARK  122  A    between atoms: _398  and  _399
REMARK  123  A    between atoms: _413  and  _414
REMARK  124  A    between atoms: _414  and  _415
REMARK  125  A    between atoms: _414  and  _417
REMARK  126  A    between atoms: _417  and  _418
REMARK  127  A    between atoms: _418  and  _419
REMARK  128  A    between atoms: _428  and  _429
REMARK  129  A    between atoms: _429  and  _430
REMARK  130  A    between atoms: _429  and  _432
REMARK  131  A    between atoms: _432  and  _433
REMARK  132  A    between atoms: _432  and  _434
REMARK  133  A    between atoms: _433  and  _435
REMARK  134  A    between atoms: _447  and  _448
REMARK  135  A    between atoms: _448  and  _449
REMARK  136  A    between atoms: _448  and  _451
REMARK  137  A    between atoms: _451  and  _452
REMARK  138  A    between atoms: _467  and  _468
REMARK  139  A    between atoms: _468  and  _469
REMARK  140  A    between atoms: _468  and  _471
REMARK  141  A    between atoms: _471  and  _472
REMARK  142  A    between atoms: _472  and  _473
REMARK  143  A    between atoms: _472  and  _474
REMARK  144  A    between atoms: _486  and  _487
REMARK  145  A    between atoms: _487  and  _488
REMARK  146  A    between atoms: _487  and  _490
REMARK  147  A    between atoms: _490  and  _491
REMARK  148  A    between atoms: _491  and  _492
REMARK  149  A    between atoms: _492  and  _493
REMARK  150  A    between atoms: _510  and  _511
REMARK  151  A    between atoms: _511  and  _512
REMARK  152  A    between atoms: _511  and  _514
REMARK  153  A    between atoms: _514  and  _515
REMARK  154  A    between atoms: _515  and  _516
REMARK  155  A    between atoms: _525  and  _526
REMARK  156  A    between atoms: _526  and  _527
REMARK  157  A    between atoms: _526  and  _529
REMARK  158  A    between atoms: _529  and  _530
REMARK  159  A    between atoms: _530  and  _531
REMARK  160  A    between atoms: _530  and  _532
REMARK  161  A    between atoms: _544  and  _545
REMARK  162  A    between atoms: _545  and  _546
REMARK  163  A    between atoms: _545  and  _548
REMARK  164  A    between atoms: _548  and  _549
REMARK  165  A    between atoms: _548  and  _550
REMARK  166  A    between atoms: _549  and  _551
REMARK  167  A    between atoms: _563  and  _564
REMARK  168  A    between atoms: _564  and  _565
REMARK  169  A    between atoms: _564  and  _567
REMARK  170  A    between atoms: _567  and  _568
REMARK  171  A    between atoms: _574  and  _575
REMARK  172  A    between atoms: _575  and  _576
REMARK  173  A    between atoms: _575  and  _578
REMARK  174  A    between atoms: _578  and  _579
REMARK  175  A    between atoms: _588  and  _589
REMARK  176  A    between atoms: _589  and  _590
REMARK  177  A    between atoms: _589  and  _592
REMARK  178  A    between atoms: _592  and  _593
REMARK  179  A    between atoms: _599  and  _600
REMARK  180  A    between atoms: _600  and  _601
REMARK  181  A    between atoms: _600  and  _603
REMARK  182  A    between atoms: _603  and  _604
REMARK  183  A    between atoms: _610  and  _611
REMARK  184  A    between atoms: _611  and  _612
REMARK  185  A    between atoms: _611  and  _614
REMARK  186  A    between atoms: _614  and  _615
REMARK  187  A    between atoms: _622  and  _623
REMARK  188  A    between atoms: _623  and  _624
REMARK  189  A    between atoms: _623  and  _626
REMARK  190  A    between atoms: _632  and  _633
REMARK  191  A    between atoms: _633  and  _634
REMARK  192  A    between atoms: _633  and  _636
REMARK  193  A    between atoms: _636  and  _637
REMARK  194  A    between atoms: _637  and  _638
REMARK  195  A    between atoms: _637  and  _639
REMARK  196  A    between atoms: _651  and  _652
REMARK  197  A    between atoms: _652  and  _653
REMARK  198  A    between atoms: _652  and  _655
REMARK  199  A    between atoms: _655  and  _656
REMARK  200  A    between atoms: _663  and  _664
REMARK  201  A    between atoms: _664  and  _665
REMARK  202  A    between atoms: _664  and  _667
REMARK  203  A    between atoms: _667  and  _668
REMARK  204  A    between atoms: _668  and  _669
REMARK  205  A    between atoms: _669  and  _670
REMARK  206  A    between atoms: _670  and  _671
REMARK  207  A    between atoms: _685  and  _686
REMARK  208  A    between atoms: _686  and  _687
REMARK  209  A    between atoms: _686  and  _689
REMARK  210  A    between atoms: _689  and  _690
REMARK  211  A    between atoms: _689  and  _691
REMARK  212  A    between atoms: _690  and  _692
REMARK  213  A    between atoms: _704  and  _705
REMARK  214  A    between atoms: _705  and  _706
REMARK  215  A    between atoms: _705  and  _708
REMARK  216  A    between atoms: _708  and  _709
REMARK  217  A    between atoms: _709  and  _710
REMARK  218  A    between atoms: _710  and  _711
REMARK  219  A    between atoms: _728  and  _729
REMARK  220  A    between atoms: _729  and  _730
REMARK  221  A    between atoms: _729  and  _732
REMARK  222  A    between atoms: _732  and  _733
REMARK  223  A    between atoms: _738  and  _739
REMARK  224  A    between atoms: _749  and  _750
REMARK  225  A    between atoms: _750  and  _751
REMARK  226  A    between atoms: _750  and  _753
REMARK  227  A    between atoms: _753  and  _754
REMARK  228  A    between atoms: _754  and  _755
REMARK  229  A    between atoms: _764  and  _765
REMARK  230  A    between atoms: _765  and  _766
REMARK  231  A    between atoms: _765  and  _768
REMARK  232  A    between atoms: _772  and  _773
REMARK  233  A    between atoms: _773  and  _774
REMARK  234  A    between atoms: _773  and  _776
REMARK  235  A    between atoms: _776  and  _777
REMARK  236  A    between atoms: _777  and  _778
REMARK  237  A    between atoms: _777  and  _779
REMARK  238  A    between atoms: _791  and  _792
REMARK  239  A    between atoms: _792  and  _793
REMARK  240  A    between atoms: _792  and  _795
REMARK  241  A    between atoms: _795  and  _796
REMARK  242  A    between atoms: _795  and  _797
REMARK  243  A    between atoms: _805  and  _806
REMARK  244  A    between atoms: _806  and  _807
REMARK  245  A    between atoms: _806  and  _809
REMARK  246  A    between atoms: _809  and  _810
REMARK  247  A    between atoms: _818  and  _819
REMARK  248  A    between atoms: _831  and  _832
REMARK  249  A    between atoms: _832  and  _833
REMARK  250  A    between atoms: _832  and  _835
REMARK  251  A    between atoms: _835  and  _836
REMARK  252  A    between atoms: _842  and  _843
REMARK  253  A    between atoms: _843  and  _844
REMARK  254  A    between atoms: _843  and  _846
REMARK  255  A    between atoms: _846  and  _847
REMARK  256  A    between atoms: _847  and  _848
REMARK  257  A    between atoms: _848  and  _849
REMARK  258  A    between atoms: _849  and  _850
REMARK  259  A    between atoms: _864  and  _865
REMARK  260  A    between atoms: _865  and  _866
REMARK  261  A    between atoms: _865  and  _868
REMARK  262  A    between atoms: _868  and  _869
REMARK  263  A    between atoms: _869  and  _870
REMARK  264  A    between atoms: _869  and  _871
REMARK  265  A    between atoms: _883  and  _884
REMARK  266  A    between atoms: _884  and  _885
REMARK  267  A    between atoms: _884  and  _887
REMARK  268  A    between atoms: _887  and  _888
REMARK  269  A    between atoms: _895  and  _896
REMARK  270  A    between atoms: _896  and  _897
REMARK  271  A    between atoms: _896  and  _899
REMARK  272  A    between atoms: _899  and  _900
REMARK  273  A    between atoms: _906  and  _907
REMARK  274  A    between atoms: _907  and  _908
REMARK  275  A    between atoms: _913  and  _914
REMARK  276  A    between atoms: _914  and  _915
REMARK  277  A    between atoms: _914  and  _917
REMARK  278  A    between atoms: _917  and  _918
REMARK  279  A    between atoms: _918  and  _919
REMARK  280  A    between atoms: _919  and  _920
REMARK  281  A    between atoms: _920  and  _921
REMARK  282  A    between atoms: _935  and  _936
REMARK  283  A    between atoms: _936  and  _937
REMARK  284  A    between atoms: _936  and  _939
REMARK  285  A    between atoms: _939  and  _940
REMARK  286  A    between atoms: _940  and  _941
REMARK  287  A    between atoms: _950  and  _951
REMARK  288  A    between atoms: _951  and  _952
REMARK  289  A    between atoms: _951  and  _954
REMARK  290  A    between atoms: _954  and  _955
REMARK  291  A    between atoms: _955  and  _956
REMARK  292  A    between atoms: _955  and  _957
REMARK  293  A    between atoms: _969  and  _970
REMARK  294  A    between atoms: _970  and  _971
REMARK  295  A    between atoms: _970  and  _973
REMARK  296  A    between atoms: _973  and  _974
REMARK  297  A    between atoms: _986  and  _987
REMARK  298  A    between atoms: _987  and  _988
REMARK  299  A    between atoms: _987  and  _990
REMARK  300  A    between atoms: _990  and  _991
REMARK  301  A    between atoms: _990  and  _992
REMARK  302  A    between atoms: _991  and  _993
REMARK  303  A    between atoms: _1005  and  _1006
REMARK  304  A    between atoms: _1006  and  _1007
REMARK  305  A    between atoms: _1006  and  _1009
REMARK  306  A    between atoms: _1009  and  _1010
REMARK  307  A    between atoms: _1019  and  _1020
REMARK  308  A    between atoms: _1020  and  _1021
REMARK  309  A    between atoms: _1020  and  _1023
REMARK  310  A    between atoms: _1023  and  _1024
REMARK  311  A    between atoms: _1024  and  _1025
REMARK  312  A    between atoms: _1024  and  _1026
REMARK  313  A    between atoms: _1038  and  _1039
REMARK  314  A    between atoms: _1039  and  _1040
REMARK  315  A    between atoms: _1039  and  _1042
REMARK  316  A    between atoms: _1042  and  _1043
REMARK  317  A    between atoms: _1042  and  _1044
REMARK  318  A    between atoms: _1043  and  _1045
REMARK  319  A    between atoms: _1058  and  _1059
REMARK  320  A    between atoms: _1071  and  _1072
REMARK  321  A    between atoms: _1072  and  _1073
REMARK  322  A    between atoms: _1072  and  _1075
REMARK  323  A    between atoms: _1075  and  _1076
REMARK  324  A    between atoms: _1085  and  _1086
REMARK  325  A    between atoms: _1086  and  _1087
REMARK  326  A    between atoms: _1086  and  _1089
REMARK  327  A    between atoms: _1089  and  _1090
REMARK  328  A    between atoms: _1090  and  _1091
REMARK  329  A    between atoms: _1091  and  _1092
REMARK  330  A    between atoms: _1092  and  _1093
REMARK  331  A    between atoms: _1107  and  _1108
REMARK  332  A    between atoms: _1108  and  _1109
REMARK  333  A    between atoms: _1108  and  _1111
REMARK  334  A    between atoms: _1111  and  _1112
REMARK  335  A    between atoms: _1112  and  _1113
REMARK  336  A    between atoms: _1124  and  _1125
REMARK  337  A    between atoms: _1125  and  _1126
REMARK  338  A    between atoms: _1125  and  _1128
REMARK  339  A    between atoms: _1128  and  _1129
REMARK  340  A    between atoms: _1136  and  _1137
REMARK  341  A    between atoms: _1137  and  _1138
REMARK  342  A    between atoms: _1137  and  _1140
REMARK  343  A    between atoms: _1140  and  _1141
REMARK  344  A    between atoms: _1141  and  _1142
REMARK  345  A    between atoms: _1142  and  _1143
REMARK  346  A    between atoms: _1160  and  _1161
REMARK  347  A    between atoms: _1161  and  _1162
REMARK  348  A    between atoms: _1161  and  _1164
REMARK  349  A    between atoms: _1164  and  _1165
REMARK  350  A    between atoms: _1164  and  _1166
REMARK  351  A    between atoms: _1174  and  _1175
REMARK  352  A    between atoms: _1175  and  _1176
REMARK  353  A    between atoms: _1175  and  _1178
REMARK  354  A    between atoms: _1178  and  _1179
REMARK  355  A    between atoms: _1179  and  _1180
REMARK  356  A    between atoms: _1179  and  _1181
REMARK  357  A    between atoms: _1193  and  _1194
REMARK  358  A    between atoms: _1194  and  _1195
REMARK  359  A    between atoms: _1194  and  _1197
REMARK  360  A    between atoms: _1197  and  _1198
REMARK  361  A    between atoms: _1197  and  _1199
REMARK  362  A    between atoms: _1207  and  _1208
REMARK  363  A    between atoms: _1208  and  _1209
REMARK  364  A    between atoms: _1208  and  _1211
REMARK  365  A    between atoms: _1211  and  _1212
REMARK  366  A    between atoms: _1211  and  _1213
REMARK  367  A    between atoms: _1212  and  _1214
REMARK  368  A    between atoms: _1226  and  _1227
REMARK  369  A    between atoms: _1227  and  _1228
REMARK  370  A    between atoms: _1227  and  _1230
REMARK  371  A    between atoms: _1230  and  _1231
REMARK  372  A    between atoms: _1230  and  _1232
REMARK  373  A    between atoms: _1242  and  _1243
REMARK  374  A    between atoms: _1243  and  _1244
REMARK  375  A    between atoms: _1243  and  _1246
REMARK  376  A    between atoms: _1246  and  _1247
REMARK  377  A    between atoms: _1254  and  _1255
REMARK  378  A    between atoms: _1255  and  _1256
REMARK  379  A    between atoms: _1255  and  _1258
REMARK  380  A    between atoms: _1258  and  _1259
REMARK  381  A    between atoms: _1258  and  _1260
REMARK  382  A    between atoms: _1268  and  _1269
REMARK  383  A    between atoms: _1269  and  _1270
REMARK  384  A    between atoms: _1275  and  _1276
REMARK  385  A    between atoms: _1276  and  _1277
REMARK  386  A    between atoms: _1276  and  _1279
REMARK  387  A    between atoms: _1279  and  _1280
REMARK  388  A    between atoms: _1279  and  _1281
REMARK  389  A    between atoms: _1280  and  _1282
REMARK  390  A    between atoms: _1294  and  _1295
REMARK  391  A    between atoms: _1295  and  _1296
REMARK  392  A    between atoms: _1301  and  _1302
REMARK  393  A    between atoms: _1302  and  _1303
REMARK  394  A    between atoms: _1302  and  _1305
REMARK  395  A    between atoms: _1305  and  _1306
REMARK  396  A    between atoms: _1306  and  _1307
REMARK  397  A    between atoms: _1307  and  _1308
REMARK  398  A    between atoms: _1318  and  _1319
REMARK  399  A    between atoms: _1319  and  _1320
REMARK  400  A    between atoms: _1319  and  _1322
REMARK  401  A    between atoms: _1322  and  _1323
REMARK  402  A    between atoms: _1322  and  _1324
REMARK  403  A    between atoms: _1332  and  _1333
REMARK  404  A    between atoms: _1333  and  _1334
REMARK  405  A    between atoms: _1333  and  _1336
REMARK  406  A    between atoms: _1336  and  _1337
REMARK  407  A    between atoms: _1337  and  _1338
REMARK  408  A    between atoms: _1338  and  _1339
REMARK  409  A    between atoms: _1339  and  _1340
REMARK  410  A    between atoms: _1354  and  _1355
REMARK  411  A    between atoms: _1355  and  _1356
REMARK  412  A    between atoms: _1355  and  _1358
REMARK  413  A    between atoms: _1364  and  _1365
REMARK  414  A    between atoms: _1365  and  _1366
REMARK  415  A    between atoms: _1365  and  _1368
REMARK  416  A    between atoms: _1368  and  _1369
REMARK  417  A    between atoms: _1376  and  _1377
REMARK  418  A    between atoms: _1377  and  _1378
REMARK  419  A    between atoms: _1377  and  _1380
REMARK  420  A    between atoms: _1380  and  _1381
REMARK  421  A    between atoms: _1381  and  _1382
REMARK  422  A    between atoms: _1381  and  _1383
REMARK  423  A    between atoms: _1395  and  _1396
REMARK  424  A    between atoms: _1396  and  _1399
REMARK  425  A    between atoms: _1399  and  _1400
REMARK  426  A    between atoms: _1399  and  _1401
REMARK  427  A    between atoms: _1400  and  _1402
REMARK  428  A    between atoms: _1422  and  _1425
REMARK  429  A    between atoms: _1424  and  _1428
REMARK  430  A    between atoms: _1425  and  _1427
REMARK  431  A    between atoms: _1443  and  _1444
REMARK  432  A    between atoms: _1443  and  _1446
REMARK  433  A    between atoms: _1446  and  _1447
REMARK  434  A    between atoms: _1457  and  _1458
REMARK  435  A    between atoms: _1458  and  _1459
REMARK  436  A    between atoms: _1458  and  _1461
REMARK  437  A    between atoms: _1461  and  _1462
REMARK  438  A    between atoms: _1462  and  _1463
REMARK  439  A    between atoms: _1462  and  _1464
REMARK  440  A    between atoms: _1476  and  _1477
REMARK  441  A    between atoms: _1477  and  _1478
REMARK  442  A    between atoms: _1483  and  _1484
REMARK  443  A    between atoms: _1484  and  _1485
REMARK  444  A    between atoms: _1484  and  _1487
REMARK  445  A    between atoms: _1487  and  _1488
REMARK  446  A    between atoms: _1487  and  _1489
REMARK  447  A    between atoms: _1497  and  _1498
REMARK  448  A    between atoms: _1498  and  _1499
REMARK  449  A    between atoms: _1498  and  _1501
REMARK  450  A    between atoms: _1501  and  _1502
REMARK  451  A    between atoms: _1501  and  _1503
REMARK  452  A    between atoms: _1502  and  _1504
REMARK  453  A    between atoms: _1516  and  _1517
REMARK  454  A    between atoms: _1517  and  _1518
REMARK  455  A    between atoms: _1517  and  _1520
REMARK  456  A    between atoms: _1526  and  _1527
REMARK  457  A    between atoms: _1527  and  _1528
REMARK  458  A    between atoms: _1527  and  _1530
REMARK  459  A    between atoms: _1530  and  _1531
REMARK  460  A    between atoms: _1531  and  _1532
REMARK  461  A    between atoms: _1532  and  _1533
REMARK  462  A    between atoms: _1533  and  _1534
REMARK  463  A    between atoms: _1548  and  _1549
REMARK  464  A    between atoms: _1549  and  _1550
REMARK  465  A    between atoms: _1549  and  _1552
REMARK  466  A    between atoms: _1552  and  _1553
REMARK  467  A    between atoms: _1559  and  _1560
REMARK  468  A    between atoms: _1560  and  _1561
REMARK  469  A    between atoms: _1566  and  _1567
REMARK  470  A    between atoms: _1567  and  _1568
REMARK  471  A    between atoms: _1567  and  _1570
REMARK  472  A    between atoms: _1570  and  _1571
REMARK  473  A    between atoms: _1570  and  _1572
REMARK  474  A    between atoms: _1580  and  _1581
REMARK  475  A    between atoms: _1581  and  _1582
REMARK  476  A    between atoms: _1581  and  _1584
REMARK  477  A    between atoms: _1584  and  _1585
REMARK  478  A    between atoms: _1585  and  _1586
REMARK  479  A    between atoms: _1586  and  _1587
REMARK  480  A    between atoms: _1587  and  _1588
REMARK  481  A    between atoms: _1602  and  _1603
REMARK  482  A    between atoms: _1603  and  _1604
REMARK  483  A    between atoms: _1603  and  _1606
REMARK  484  A    between atoms: _1612  and  _1613
REMARK  485  A    between atoms: _1613  and  _1614
REMARK  486  A    between atoms: _1613  and  _1616
REMARK  487  A    between atoms: _1616  and  _1617
REMARK  488  A    between atoms: _1632  and  _1633
REMARK  489  A    between atoms: _1633  and  _1634
REMARK  490  A    between atoms: _1633  and  _1636
REMARK  491  A    between atoms: _1636  and  _1637
REMARK  492  A    between atoms: _1637  and  _1638
REMARK  493  A    between atoms: _1638  and  _1639
REMARK  494  A    between atoms: _1649  and  _1650
REMARK  495  A    between atoms: _1650  and  _1651
REMARK  496  A    between atoms: _1650  and  _1653
REMARK  497  A    between atoms: _1653  and  _1654
REMARK  498  A    between atoms: _1654  and  _1655
REMARK  499  A    between atoms: _1664  and  _1665
REMARK  500  A    between atoms: _1665  and  _1666
REMARK  501  A    between atoms: _1665  and  _1668
REMARK  502  A    between atoms: _1674  and  _1675
REMARK  503  A    between atoms: _1675  and  _1676
REMARK  504  A    between atoms: _1675  and  _1678
REMARK  505  A    between atoms: _1678  and  _1679
REMARK  506  A    between atoms: _1679  and  _1680
REMARK  507  A    between atoms: _1679  and  _1681
REMARK  508  A    between atoms: _1693  and  _1694
REMARK  509  A    between atoms: _1694  and  _1695
REMARK  510  A    between atoms: _1694  and  _1697
REMARK  511  A    between atoms: _1697  and  _1698
REMARK  512  A    between atoms: _1698  and  _1699
REMARK  513  A    between atoms: _1710  and  _1711
REMARK  514  A    between atoms: _1711  and  _1712
REMARK  515  A    between atoms: _1711  and  _1714
REMARK  516  A    between atoms: _1720  and  _1721
REMARK  517  A    between atoms: _1721  and  _1722
REMARK  518  A    between atoms: _1727  and  _1728
REMARK  519  A    between atoms: _1728  and  _1729
REMARK  520  A    between atoms: _1728  and  _1731
REMARK  521  A    between atoms: _1737  and  _1738
REMARK  522  A    between atoms: _1738  and  _1739
REMARK  523  A    between atoms: _1738  and  _1741
REMARK  524  A    between atoms: _1741  and  _1742
REMARK  525  A    between atoms: _1749  and  _1750
REMARK  526  A    between atoms: _1750  and  _1751
REMARK  527  A    between atoms: _1750  and  _1753
REMARK  528  A    between atoms: _1753  and  _1754
REMARK  529  A    between atoms: _1753  and  _1755
REMARK  530  A    between atoms: _1754  and  _1756
REMARK  531  A    between atoms: _1768  and  _1769
REMARK  532  A    between atoms: _1769  and  _1772
REMARK  533  A    between atoms: _1772  and  _1773
REMARK  534  A    between atoms: _1791  and  _1793
REMARK  535  A    between atoms: _1792  and  _1794
REMARK  536  A    between atoms: _1814  and  _1815
REMARK  537  A    between atoms: _1814  and  _1817
REMARK  538  A    between atoms: _1817  and  _1818
REMARK  539  A    between atoms: _1817  and  _1819
REMARK  540  A    between atoms: _1818  and  _1820
REMARK  541  A    between atoms: _1833  and  _1834
REMARK  542  A    between atoms: _1834  and  _1835
REMARK  543  A    between atoms: _1840  and  _1841
REMARK  544  A    between atoms: _1841  and  _1842
REMARK  545  A    between atoms: _1841  and  _1844
REMARK  546  A    between atoms: _1844  and  _1845
REMARK  547  A    between atoms: _1845  and  _1846
REMARK  548  A    between atoms: _1857  and  _1858
REMARK  549  A    between atoms: _1858  and  _1859
REMARK  550  A    between atoms: _1858  and  _1861
REMARK  551  A    between atoms: _1861  and  _1862
REMARK  552  A    between atoms: _1877  and  _1878
REMARK  553  A    between atoms: _1878  and  _1879
REMARK  554  A    between atoms: _1884  and  _1885
REMARK  555  A    between atoms: _1885  and  _1886
REMARK  556  A    between atoms: _1885  and  _1888
REMARK  557  A    between atoms: _1888  and  _1889
REMARK  558  A    between atoms: _1888  and  _1890
REMARK  559  A    between atoms: _1900  and  _1901
REMARK  560  A    between atoms: _1901  and  _1902
REMARK  561  A    between atoms: _1907  and  _1908
REMARK  562  A    between atoms: _1908  and  _1909
REMARK  563  A    between atoms: _1908  and  _1911
REMARK  564  A    between atoms: _1911  and  _1912
REMARK  565  A    between atoms: _1927  and  _1928
REMARK  566  A    between atoms: _1928  and  _1929
REMARK  567  A    between atoms: _1928  and  _1931
REMARK  568  A    between atoms: _1931  and  _1932
REMARK  569  A    between atoms: _1937  and  _1938
REMARK  570  A    between atoms: _1948  and  _1949
REMARK  571  A    between atoms: _1949  and  _1950
REMARK  572  A    between atoms: _1949  and  _1952
REMARK  573  A    between atoms: _1952  and  _1953
REMARK  574  A    between atoms: _1959  and  _1960
REMARK  575  A    between atoms: _1960  and  _1961
REMARK  576  A    between atoms: _1960  and  _1963
REMARK  577  A    between atoms: _1969  and  _1970
REMARK  578  A    between atoms: _1970  and  _1971
REMARK  579  A    between atoms: _1970  and  _1973
REMARK  580  A    between atoms: _1973  and  _1974
REMARK  581  A    between atoms: _1979  and  _1980
REMARK  582  A    between atoms: _1990  and  _1991
REMARK  583  A    between atoms: _1991  and  _1992
REMARK  584  A    between atoms: _1991  and  _1994
REMARK  585  A    between atoms: _1994  and  _1995
REMARK  586  A    between atoms: _1995  and  _1996
REMARK  587  A    between atoms: _1995  and  _1997
REMARK  588  A    between atoms: _2009  and  _2010
REMARK  589  A    between atoms: _2010  and  _2011
REMARK  590  A    between atoms: _2010  and  _2013
REMARK  591  A    between atoms: _2013  and  _2014
REMARK  592  A    between atoms: _2013  and  _2015
REMARK  593  A    between atoms: _2025  and  _2026
REMARK  594  A    between atoms: _2026  and  _2027
REMARK  595  A    between atoms: _2026  and  _2029
REMARK  596  A    between atoms: _2035  and  _2036
REMARK  597  A    between atoms: _2036  and  _2037
REMARK  598  A    between atoms: _2036  and  _2039
REMARK  599  A    between atoms: _2039  and  _2040
REMARK  600  A    between atoms: _2040  and  _2041
REMARK  601  A    between atoms: _2050  and  _2051
REMARK  602  A    between atoms: _2051  and  _2052
REMARK  603  A    between atoms: _2051  and  _2054
REMARK  604  A    between atoms: _2054  and  _2055
REMARK  605  A    between atoms: _2055  and  _2056
REMARK  606  A    between atoms: _2056  and  _2057
REMARK  607  A    between atoms: _2057  and  _2058
REMARK  608  A    between atoms: _2072  and  _2073
REMARK  609  A    between atoms: _2073  and  _2074
REMARK  610  A    between atoms: _2073  and  _2076
REMARK  611  A    between atoms: _2076  and  _2077
REMARK  612  A    between atoms: _2076  and  _2078
REMARK  613  A    between atoms: _2088  and  _2089
REMARK  614  A    between atoms: _2089  and  _2090
REMARK  615  A    between atoms: _2089  and  _2092
REMARK  616  A    between atoms: _2092  and  _2093
REMARK  617  A    between atoms: _2092  and  _2094
REMARK  618  A    between atoms: _2102  and  _2103
REMARK  619  A    between atoms: _2103  and  _2104
REMARK  620  A    between atoms: _2103  and  _2106
REMARK  621  A    between atoms: _2106  and  _2107
REMARK  622  A    between atoms: _2106  and  _2108
REMARK  623  A    between atoms: _2118  and  _2119
REMARK  624  A    between atoms: _2119  and  _2120
REMARK  625  A    between atoms: _2119  and  _2122
REMARK  626  A    between atoms: _2122  and  _2123
REMARK  627  A    between atoms: _2122  and  _2124
REMARK  628  A    between atoms: _2123  and  _2125
REMARK  629  A    between atoms: _2137  and  _2138
REMARK  630  A    between atoms: _2138  and  _2139
REMARK  631  A    between atoms: _2138  and  _2141
REMARK  632  A    between atoms: _2141  and  _2142
REMARK  633  A    between atoms: _2141  and  _2143
REMARK  634  A    between atoms: _2151  and  _2152
REMARK  635  A    between atoms: _2152  and  _2153
REMARK  636  A    between atoms: _2152  and  _2155
REMARK  637  A    between atoms: _2155  and  _2156
REMARK  638  A    between atoms: _2156  and  _2157
REMARK  639  A    between atoms: _2157  and  _2158
REMARK  640  A    between atoms: _2158  and  _2159
REMARK  641  A    between atoms: _2173  and  _2174
REMARK  642  A    between atoms: _2174  and  _2175
REMARK  643  A    between atoms: _2174  and  _2177
REMARK  644  A    between atoms: _2177  and  _2178
REMARK  645  A    between atoms: _2190  and  _2191
REMARK  646  A    between atoms: _2191  and  _2192
REMARK  647  A    between atoms: _2191  and  _2194
REMARK  648  A    between atoms: _2194  and  _2195
REMARK  649  A    between atoms: _2204  and  _2205
REMARK  650  A    between atoms: _2205  and  _2206
REMARK  651  A    between atoms: _2205  and  _2208
REMARK  652  A    between atoms: _2208  and  _2209
REMARK  653  A    between atoms: _2216  and  _2217
REMARK  654  A    between atoms: _2217  and  _2218
REMARK  655  A    between atoms: _2217  and  _2220
REMARK  656  A    between atoms: _2220  and  _2221
REMARK  657  A    between atoms: _2228  and  _2229
REMARK  658  A    between atoms: _2229  and  _2230
REMARK  659  A    between atoms: _2229  and  _2232
REMARK  660  A    between atoms: _2232  and  _2233
REMARK  661  A    between atoms: _2233  and  _2234
REMARK  662  A    between atoms: _2243  and  _2244
REMARK  663  A    between atoms: _2244  and  _2245
REMARK  664  A    between atoms: _2244  and  _2247
REMARK  665  A    between atoms: _2247  and  _2248
REMARK  666  A    between atoms: _2248  and  _2249
REMARK  667  A    between atoms: _2260  and  _2261
REMARK  668  A    between atoms: _2261  and  _2262
REMARK  669  A    between atoms: _2261  and  _2264
REMARK  670  A    between atoms: _2264  and  _2265
REMARK  671  A    between atoms: _2270  and  _2271
REMARK  672  A    between atoms: _2281  and  _2282
REMARK  673  A    between atoms: _2282  and  _2283
REMARK  674  A    between atoms: _2282  and  _2285
REMARK  675  A    between atoms: _2291  and  _2292
REMARK  676  A    between atoms: _2292  and  _2293
REMARK  677  A    between atoms: _2292  and  _2295
REMARK  678  A    between atoms: _2295  and  _2296
REMARK  679  A    between atoms: _2315  and  _2316
REMARK  680  A    between atoms: _2316  and  _2317
REMARK  681  A    between atoms: _2316  and  _2319
REMARK  682  A    between atoms: _2319  and  _2320
REMARK  683  A    between atoms: _2320  and  _2321
REMARK  684  A    between atoms: _2330  and  _2331
REMARK  685  A    between atoms: _2331  and  _2332
REMARK  686  A    between atoms: _2331  and  _2334
REMARK  687  A    between atoms: _2334  and  _2335
REMARK  688  A    between atoms: _2341  and  _2342
REMARK  689  A    between atoms: _2342  and  _2343
REMARK  690  A    between atoms: _2342  and  _2345
REMARK  691  A    between atoms: _2345  and  _2346
REMARK  692  A    between atoms: _2352  and  _2353
REMARK  693  A    between atoms: _2353  and  _2354
REMARK  694  A    between atoms: _2353  and  _2356
REMARK  695  A    between atoms: _2362  and  _2363
REMARK  696  A    between atoms: _2363  and  _2364
REMARK  697  A    between atoms: _2369  and  _2370
REMARK  698  A    between atoms: _2370  and  _2371
REMARK  699  A    between atoms: _2376  and  _2377
REMARK  700  A    between atoms: _2377  and  _2378
REMARK  701  A    between atoms: _2377  and  _2380
REMARK  702  A    between atoms: _2380  and  _2381
REMARK  703  A    between atoms: _2387  and  _2388
REMARK  704  A    between atoms: _2388  and  _2389
REMARK  705  A    between atoms: _2388  and  _2391
REMARK  706  A    between atoms: _2391  and  _2392
REMARK  707  A    between atoms: _2407  and  _2408
REMARK  708  A    between atoms: _2408  and  _2409
REMARK  709  A    between atoms: _2408  and  _2411
REMARK  710  A    between atoms: _2411  and  _2412
REMARK  711  A    between atoms: _2411  and  _2413
REMARK  712  A    between atoms: _2421  and  _2422
REMARK  713  A    between atoms: _2422  and  _2423
REMARK  714  A    between atoms: _2422  and  _2425
REMARK  715  A    between atoms: _2425  and  _2426
REMARK  716  A    between atoms: _2425  and  _2427
REMARK  717  A    between atoms: _2437  and  _2438
REMARK  718  A    between atoms: _2438  and  _2439
REMARK  719  A    between atoms: _2438  and  _2441
REMARK  720  A    between atoms: _2441  and  _2442
REMARK  721  A    between atoms: _2442  and  _2443
REMARK  722  A    between atoms: _2443  and  _2444
REMARK  723  A    between atoms: _2461  and  _2462
REMARK  724  A    between atoms: _2462  and  _2463
REMARK  725  A    between atoms: _2462  and  _2465
REMARK  726  A    between atoms: _2465  and  _2466
REMARK  727  A    between atoms: _2465  and  _2467
REMARK  728  A    between atoms: _2475  and  _2476
REMARK  729  A    between atoms: _2476  and  _2477
REMARK  730  A    between atoms: _2476  and  _2479
REMARK  731  A    between atoms: _2479  and  _2480
REMARK  732  A    between atoms: _2487  and  _2488
REMARK  733  A    between atoms: _2488  and  _2489
REMARK  734  A    between atoms: _2488  and  _2491
REMARK  735  A    between atoms: _2491  and  _2492
REMARK  736  A    between atoms: _2491  and  _2493
REMARK  737  A    between atoms: _2501  and  _2502
REMARK  738  A    between atoms: _2502  and  _2503
REMARK  739  A    between atoms: _2508  and  _2509
REMARK  740  A    between atoms: _2509  and  _2510
REMARK  741  A    between atoms: _2509  and  _2512
REMARK  742  A    between atoms: _2512  and  _2513
REMARK  743  A    between atoms: _2513  and  _2514
REMARK  744  A    between atoms: _2524  and  _2525
REMARK  745  A    between atoms: _2537  and  _2538
REMARK  746  A    between atoms: _2538  and  _2539
REMARK  747  A    between atoms: _2538  and  _2541
REMARK  748  A    between atoms: _2541  and  _2542
REMARK  749  A    between atoms: _2542  and  _2543
REMARK  750  A    between atoms: _2543  and  _2544
REMARK  751  A    between atoms: _2554  and  _2555
REMARK  752  A    between atoms: _2555  and  _2556
REMARK  753  A    between atoms: _2561  and  _2562
REMARK  754  A    between atoms: _2562  and  _2563
REMARK  755  A    between atoms: _2562  and  _2565
REMARK  756  A    between atoms: _2565  and  _2566
REMARK  757  A    between atoms: _2566  and  _2567
REMARK  758  A    between atoms: _2567  and  _2568
REMARK  759  A    between atoms: _2585  and  _2586
REMARK  760  A    between atoms: _2586  and  _2587
REMARK  761  A    between atoms: _2592  and  _2593
REMARK  762  A    between atoms: _2593  and  _2594
REMARK  763  A    between atoms: _2593  and  _2596
REMARK  764  A    between atoms: _2596  and  _2597
REMARK  765  A    between atoms: _2596  and  _2598
REMARK  766  A    between atoms: _2606  and  _2607
REMARK  767  A    between atoms: _2607  and  _2608
REMARK  768  A    between atoms: _2607  and  _2610
REMARK  769  A    between atoms: _2610  and  _2611
REMARK  770  A    between atoms: _2611  and  _2612
REMARK  771  A    between atoms: _2612  and  _2613
REMARK  772  A    between atoms: _2613  and  _2614
REMARK  773  A    between atoms: _2628  and  _2629
REMARK  774  A    between atoms: _2629  and  _2630
REMARK  775  A    between atoms: _2629  and  _2632
REMARK  776  A    between atoms: _2632  and  _2633
REMARK  777  A    between atoms: _2632  and  _2634
REMARK  778  A    between atoms: _2644  and  _2645
REMARK  779  A    between atoms: _2645  and  _2646
REMARK  780  A    between atoms: _2645  and  _2648
REMARK  781  A    between atoms: _2648  and  _2649
REMARK  782  A    between atoms: _2648  and  _2650
REMARK  783  A    between atoms: _2649  and  _2651
REMARK  784  A    between atoms: _2663  and  _2664
REMARK  785  A    between atoms: _2664  and  _2665
REMARK  786  A    between atoms: _2664  and  _2667
REMARK  787  A    between atoms: _2667  and  _2668
REMARK  788  A    between atoms: _2668  and  _2669
REMARK  789  A    between atoms: _2668  and  _2670
REMARK  790  A    between atoms: _2682  and  _2683
REMARK  791  A    between atoms: _2683  and  _2684
REMARK  792  A    between atoms: _2683  and  _2686
REMARK  793  A    between atoms: _2686  and  _2687
REMARK  794  A    between atoms: _2699  and  _2700
REMARK  795  A    between atoms: _2700  and  _2701
REMARK  796  A    between atoms: _2700  and  _2703
REMARK  797  A    between atoms: _2703  and  _2704
REMARK  798  A    between atoms: _2704  and  _2705
REMARK  799  A    between atoms: _2704  and  _2706
REMARK  800  A    between atoms: _2718  and  _2719
REMARK  801  A    between atoms: _2719  and  _2720
REMARK  802  A    between atoms: _2719  and  _2722
REMARK  803  A    between atoms: _2722  and  _2723
REMARK  804  A    between atoms: _2723  and  _2724
REMARK  805  A    between atoms: _2724  and  _2725
REMARK  806  A    between atoms: _2725  and  _2726
REMARK  807  A    between atoms: _2740  and  _2741
REMARK  808  A    between atoms: _2741  and  _2742
REMARK  809  A    between atoms: _2741  and  _2744
REMARK  810  A    between atoms: _2744  and  _2745
REMARK  811  A    between atoms: _2745  and  _2746
REMARK  812  A    between atoms: _2755  and  _2756
REMARK  813  A    between atoms: _2756  and  _2757
REMARK  814  A    between atoms: _2756  and  _2759
REMARK  815  A    between atoms: _2759  and  _2760
REMARK  816  A    between atoms: _2767  and  _2768
REMARK  817  A    between atoms: _2768  and  _2769
REMARK  818  A    between atoms: _2768  and  _2771
REMARK  819  A    between atoms: _2771  and  _2772
REMARK  820  A    between atoms: _2772  and  _2773
REMARK  821  A    between atoms: _2784  and  _2785
REMARK  822  A    between atoms: _2785  and  _2786
REMARK  823  A    between atoms: _2785  and  _2788
REMARK  824  A    between atoms: _2788  and  _2789
REMARK  825  A    between atoms: _2788  and  _2790
REMARK  826  A    between atoms: _2798  and  _2799
REMARK  827  A    between atoms: _2799  and  _2800
REMARK  828  A    between atoms: _2799  and  _2802
REMARK  829  A    between atoms: _2802  and  _2803
REMARK  830  A    between atoms: _2803  and  _2804
REMARK  831  A    between atoms: _2813  and  _2814
REMARK  832  A    between atoms: _2814  and  _2815
REMARK  833  A    between atoms: _2814  and  _2817
REMARK  834  A    between atoms: _2817  and  _2818
REMARK  835  A    between atoms: _2823  and  _2824
REMARK  836  A    between atoms: _2834  and  _2835
REMARK  837  A    between atoms: _2835  and  _2838
REMARK  838  A    between atoms: _2838  and  _2839
REMARK  839  A    between atoms: _2839  and  _2840
REMARK  840  A    between atoms: _2839  and  _2841
REMARK  841  A    between atoms: _2884  and  _2885
REMARK  842  A    between atoms: _2884  and  _2887
REMARK  843  A    between atoms: _2887  and  _2888
REMARK  844  A    between atoms: _2888  and  _2889
REMARK  845  A    between atoms: _2899  and  _2900
REMARK  846  A    between atoms: _2900  and  _2901
REMARK  847  A    between atoms: _2900  and  _2903
REMARK  848  A    between atoms: _2903  and  _2904
REMARK  849  A    between atoms: _2904  and  _2905
REMARK  850  A    between atoms: _2905  and  _2906
REMARK  851  A    between atoms: _2923  and  _2924
REMARK  852  A    between atoms: _2924  and  _2925
REMARK  853  A    between atoms: _2924  and  _2927
REMARK  854  A    between atoms: _2927  and  _2928
REMARK  855  A    between atoms: _2928  and  _2929
REMARK  856  A    between atoms: _2929  and  _2930
REMARK  857  A    between atoms: _2947  and  _2948
REMARK  858  A    between atoms: _2948  and  _2949
REMARK  859  A    between atoms: _2948  and  _2951
REMARK  860  A    between atoms: _2951  and  _2952
REMARK  861  A    between atoms: _2951  and  _2953
REMARK  862  A    between atoms: _2952  and  _2954
REMARK  863  A    between atoms: _2966  and  _2967
REMARK  864  A    between atoms: _2967  and  _2968
REMARK  865  A    between atoms: _2967  and  _2970
REMARK  866  A    between atoms: _2970  and  _2971
REMARK  867  A    between atoms: _2971  and  _2972
REMARK  868  A    between atoms: _2972  and  _2973
REMARK  869  A    between atoms: _2973  and  _2974
REMARK  870  A    between atoms: _2988  and  _2989
REMARK  871  A    between atoms: _2989  and  _2990
REMARK  872  A    between atoms: _2989  and  _2992
REMARK  873  A    between atoms: _2992  and  _2993
REMARK  874  A    between atoms: _2993  and  _2994
REMARK  875  A    between atoms: _3003  and  _3004
REMARK  876  A    between atoms: _3004  and  _3005
REMARK  877  A    between atoms: _3004  and  _3007
REMARK  878  A    between atoms: _3007  and  _3008
REMARK  879  A    between atoms: _3007  and  _3009
REMARK  880  A    between atoms: _3008  and  _3010
REMARK  881  A    between atoms: _3022  and  _3023
REMARK  882  A    between atoms: _3023  and  _3024
REMARK  883  A    between atoms: _3023  and  _3026
REMARK  884  A    between atoms: _3026  and  _3027
REMARK  885  A    between atoms: _3026  and  _3028
REMARK  886  A    between atoms: _3038  and  _3039
REMARK  887  A    between atoms: _3039  and  _3040
REMARK  888  A    between atoms: _3039  and  _3042
REMARK  889  A    between atoms: _3042  and  _3043
REMARK  890  A    between atoms: _3043  and  _3044
REMARK  891  A    between atoms: _3044  and  _3045
REMARK  892  A    between atoms: _3045  and  _3046
REMARK  893  A    between atoms: _3060  and  _3061
REMARK  894  A    between atoms: _3061  and  _3062
REMARK  895  A    between atoms: _3061  and  _3064
REMARK  896  A    between atoms: _3064  and  _3065
REMARK  897  A    between atoms: _3065  and  _3066
REMARK  898  A    between atoms: _3066  and  _3067
REMARK  899  A    between atoms: _3067  and  _3068
REMARK  900  A    between atoms: _3082  and  _3083
REMARK  901  A    between atoms: _3083  and  _3084
REMARK  902  A    between atoms: _3083  and  _3086
REMARK  903  A    between atoms: _3086  and  _3087
REMARK  904  A    between atoms: _3099  and  _3100
REMARK  905  A    between atoms: _3100  and  _3101
REMARK  906  A    between atoms: _3100  and  _3103
REMARK  907  A    between atoms: _3103  and  _3104
REMARK  908  A    between atoms: _3110  and  _3111
REMARK  909  A    between atoms: _3111  and  _3112
REMARK  910  A    between atoms: _3111  and  _3114
REMARK  911  A    between atoms: _3114  and  _3115
REMARK  912  A    between atoms: _3115  and  _3116
REMARK  913  A    between atoms: _3127  and  _3128
REMARK  914  A    between atoms: _3128  and  _3129
REMARK  915  A    between atoms: _3128  and  _3131
REMARK  916  A    between atoms: _3131  and  _3132
REMARK  917  A    between atoms: _3147  and  _3148
REMARK  918  A    between atoms: _3148  and  _3149
REMARK  919  A    between atoms: _3148  and  _3151
REMARK  920  A    between atoms: _3151  and  _3152
REMARK  921  A    between atoms: _3151  and  _3153
REMARK  922  A    between atoms: _3152  and  _3154
REMARK  923  A    between atoms: _3166  and  _3167
REMARK  924  A    between atoms: _3167  and  _3168
REMARK  925  A    between atoms: _3173  and  _3174
REMARK  926  A    between atoms: _3174  and  _3175
REMARK  927  A    between atoms: _3174  and  _3177
REMARK  928  A    between atoms: _3177  and  _3178
REMARK  929  A    between atoms: _3183  and  _3184
REMARK  930  A    between atoms: _3195  and  _3196
REMARK  931  A    between atoms: _3208  and  _3209
REMARK  932  A    between atoms: _3209  and  _3210
REMARK  933  A    between atoms: _3209  and  _3212
REMARK  934  A    between atoms: _3212  and  _3213
REMARK  935  A    between atoms: _3212  and  _3214
REMARK  936  A    between atoms: _3213  and  _3215
REMARK  937  A    between atoms: _3227  and  _3228
REMARK  938  A    between atoms: _3228  and  _3229
REMARK  939  A    between atoms: _3228  and  _3231
REMARK  940  A    between atoms: _3231  and  _3232
REMARK  941  A    between atoms: _3231  and  _3233
REMARK  942  A    between atoms: _3241  and  _3242
REMARK  943  A    between atoms: _3242  and  _3243
REMARK  944  A    between atoms: _3242  and  _3245
REMARK  945  A    between atoms: _3245  and  _3246
REMARK  946  A    between atoms: _3246  and  _3247
REMARK  947  A    between atoms: _3246  and  _3248
REMARK  948  A    between atoms: _3260  and  _3261
REMARK  949  A    between atoms: _3261  and  _3262
REMARK  950  A    between atoms: _3261  and  _3264
REMARK  951  A    between atoms: _3264  and  _3265
REMARK  952  A    between atoms: _3280  and  _3281
REMARK  953  A    between atoms: _3281  and  _3282
REMARK  954  A    between atoms: _3281  and  _3284
REMARK  955  A    between atoms: _3284  and  _3285
REMARK  956  A    between atoms: _3284  and  _3286
REMARK  957  A    between atoms: _3296  and  _3297
REMARK  958  A    between atoms: _3297  and  _3298
REMARK  959  A    between atoms: _3297  and  _3300
REMARK  960  A    between atoms: _3300  and  _3301
REMARK  961  A    between atoms: _3301  and  _3302
REMARK                            x       y       z     vdW  Elec       q    Type
REMARK                         _______ _______ _______ _____ _____    ______ ____
ROOT
ATOM      1  H   UNK     1      -8.673  20.881  42.904  0.00  0.00    +0.000 HD
ENDROOT
TORSDOF 0
REMARK  Name = /Users/mlugowska/PhD/ML_residence_time_prediction/protein_files/5J20_protein.pdb
REMARK  961 active torsions:
REMARK  status: ('A' for Active; 'I' for Inactive)
REMARK    1  A    between atoms: _2  and  _3
REMARK    2  A    between atoms: _2  and  _5
REMARK    3  A    between atoms: _10  and  _11
REMARK    4  A    between atoms: _11  and  _12
REMARK    5  A    between atoms: _11  and  _14
REMARK    6  A    between atoms: _14  and  _15
REMARK    7  A    between atoms: _14  and  _16
REMARK    8  A    between atoms: _26  and  _27
REMARK    9  A    between atoms: _27  and  _28
REMARK   10  A    between atoms: _27  and  _30
REMARK   11  A    between atoms: _30  and  _31
REMARK   12  A    between atoms: _31  and  _32
REMARK   13  A    between atoms: _41  and  _42
REMARK   14  A    between atoms: _42  and  _43
REMARK   15  A    between atoms: _42  and  _45
REMARK   16  A    between atoms: _45  and  _46
REMARK   17  A    between atoms: _45  and  _47
REMARK   18  A    between atoms: _55  and  _56
REMARK   19  A    between atoms: _56  and  _57
REMARK   20  A    between atoms: _56  and  _59
REMARK   21  A    between atoms: _59  and  _60
REMARK   22  A    between atoms: _75  and  _76
REMARK   23  A    between atoms: _76  and  _77
REMARK   24  A    between atoms: _76  and  _79
REMARK   25  A    between atoms: _85  and  _86
REMARK   26  A    between atoms: _86  and  _87
REMARK   27  A    between atoms: _86  and  _89
REMARK   28  A    between atoms: _89  and  _90
REMARK   29  A    between atoms: _105  and  _106
REMARK   30  A    between atoms: _106  and  _107
REMARK   31  A    between atoms: _106  and  _109
REMARK   32  A    between atoms: _109  and  _110
REMARK   33  A    between atoms: _110  and  _111
REMARK   34  A    between atoms: _122  and  _123
REMARK   35  A    between atoms: _123  and  _124
REMARK   36  A    between atoms: _123  and  _126
REMARK   37  A    between atoms: _132  and  _133
REMARK   38  A    between atoms: _133  and  _134
REMARK   39  A    between atoms: _133  and  _136
REMARK   40  A    between atoms: _136  and  _137
REMARK   41  A    between atoms: _137  and  _138
REMARK   42  A    between atoms: _147  and  _148
REMARK   43  A    between atoms: _148  and  _149
REMARK   44  A    between atoms: _148  and  _151
REMARK   45  A    between atoms: _151  and  _152
REMARK   46  A    between atoms: _151  and  _153
REMARK   47  A    between atoms: _152  and  _154
REMARK   48  A    between atoms: _166  and  _167
REMARK   49  A    between atoms: _167  and  _168
REMARK   50  A    between atoms: _167  and  _170
REMARK   51  A    between atoms: _176  and  _177
REMARK   52  A    between atoms: _177  and  _178
REMARK   53  A    between atoms: _177  and  _180
REMARK   54  A    between atoms: _180  and  _181
REMARK   55  A    between atoms: _181  and  _182
REMARK   56  A    between atoms: _193  and  _194
REMARK   57  A    between atoms: _194  and  _195
REMARK   58  A    between atoms: _194  and  _197
REMARK   59  A    between atoms: _197  and  _198
REMARK   60  A    between atoms: _198  and  _199
REMARK   61  A    between atoms: _198  and  _200
REMARK   62  A    between atoms: _212  and  _213
REMARK   63  A    between atoms: _213  and  _214
REMARK   64  A    between atoms: _213  and  _216
REMARK   65  A    between atoms: _216  and  _217
REMARK   66  A    between atoms: _217  and  _218
REMARK   67  A    between atoms: _218  and  _219
REMARK   68  A    between atoms: _229  and  _230
REMARK   69  A    between atoms: _230  and  _231
REMARK   70  A    between atoms: _230  and  _233
REMARK   71  A    between atoms: _233  and  _234
REMARK   72  A    between atoms: _240  and  _241
REMARK   73  A    between atoms: _241  and  _242
REMARK   74  A    between atoms: _241  and  _244
REMARK   75  A    between atoms: _244  and  _245
REMARK   76  A    between atoms: _245  and  _246
REMARK   77  A    between atoms: _245  and  _247
REMARK   78  A    between atoms: _259  and  _260
REMARK   79  A    between atoms: _260  and  _261
REMARK   80  A    between atoms: _260  and  _263
REMARK   81  A    between atoms: _263  and  _264
REMARK   82  A    between atoms: _263  and  _265
REMARK   83  A    between atoms: _264  and  _266
REMARK   84  A    between atoms: _278  and  _279
REMARK   85  A    between atoms: _279  and  _280
REMARK   86  A    between atoms: _279  and  _282
REMARK   87  A    between atoms: _282  and  _283
REMARK   88  A    between atoms: _282  and  _284
REMARK   89  A    between atoms: _283  and  _285
REMARK   90  A    between atoms: _297  and  _298
REMARK   91  A    between atoms: _298  and  _299
REMARK   92  A    between atoms: _298  and  _301
REMARK   93  A    between atoms: _301  and  _302
REMARK   94  A    between atoms: _311  and  _312
REMARK   95  A    between atoms: _312  and  _313
REMARK   96  A    between atoms: _312  and  _315
REMARK   97  A    between atoms: _315  and  _316
REMARK   98  A    between atoms: _315  and  _317
REMARK   99  A    between atoms: _325  and  _326
REMARK  100  A    between atoms: _326  and  _327
REMARK  101  A    between atoms: _326  and  _329
REMARK  102  A    between atoms: _329  and  _330
REMARK  103  A    between atoms: _345  and  _346
REMARK  104  A    between atoms: _346  and  _347
REMARK  105  A    between atoms: _346  and  _349
REMARK  106  A    between atoms: _349  and  _350
REMARK  107  A    between atoms: _355  and  _356
REMARK  108  A    between atoms: _366  and  _367
REMARK  109  A    between atoms: _367  and  _368
REMARK  110  A    between atoms: _367  and  _370
REMARK  111  A    between atoms: _370  and  _371
REMARK  112  A    between atoms: _377  and  _378
REMARK  113  A    between atoms: _378  and  _379
REMARK  114  A    between atoms: _378  and  _381
REMARK  115  A    between atoms: _381  and  _382
REMARK  116  A    between atoms: _391  and  _392
REMARK  117  A    between atoms: _392  and  _393
REMARK  118  A    between atoms: _392  and  _395
REMARK  119  A    between atoms: _395  and  _396
REMARK  120  A    between atoms: _396  and  _397
REMARK  121  A    between atoms: _397  and  _398
REMARK  122  A    between atoms: _398  and  _399
REMARK  123  A    between atoms: _413  and  _414
REMARK  124  A    between atoms: _414  and  _415
REMARK  125  A    between atoms: _414  and  _417
REMARK  126  A    between atoms: _417  and  _418
REMARK  127  A    between atoms: _418  and  _419
REMARK  128  A    between atoms: _428  and  _429
REMARK  129  A    between atoms: _429  and  _430
REMARK  130  A    between atoms: _429  and  _432
REMARK  131  A    between atoms: _432  and  _433
REMARK  132  A    between atoms: _432  and  _434
REMARK  133  A    between atoms: _433  and  _435
REMARK  134  A    between atoms: _447  and  _448
REMARK  135  A    between atoms: _448  and  _449
REMARK  136  A    between atoms: _448  and  _451
REMARK  137  A    between atoms: _451  and  _452
REMARK  138  A    between atoms: _467  and  _468
REMARK  139  A    between atoms: _468  and  _469
REMARK  140  A    between atoms: _468  and  _471
REMARK  141  A    between atoms: _471  and  _472
REMARK  142  A    between atoms: _472  and  _473
REMARK  143  A    between atoms: _472  and  _474
REMARK  144  A    between atoms: _486  and  _487
REMARK  145  A    between atoms: _487  and  _488
REMARK  146  A    between atoms: _487  and  _490
REMARK  147  A    between atoms: _490  and  _491
REMARK  148  A    between atoms: _491  and  _492
REMARK  149  A    between atoms: _492  and  _493
REMARK  150  A    between atoms: _510  and  _511
REMARK  151  A    between atoms: _511  and  _512
REMARK  152  A    between atoms: _511  and  _514
REMARK  153  A    between atoms: _514  and  _515
REMARK  154  A    between atoms: _515  and  _516
REMARK  155  A    between atoms: _525  and  _526
REMARK  156  A    between atoms: _526  and  _527
REMARK  157  A    between atoms: _526  and  _529
REMARK  158  A    between atoms: _529  and  _530
REMARK  159  A    between atoms: _530  and  _531
REMARK  160  A    between atoms: _530  and  _532
REMARK  161  A    between atoms: _544  and  _545
REMARK  162  A    between atoms: _545  and  _546
REMARK  163  A    between atoms: _545  and  _548
REMARK  164  A    between atoms: _548  and  _549
REMARK  165  A    between atoms: _548  and  _550
REMARK  166  A    between atoms: _549  and  _551
REMARK  167  A    between atoms: _563  and  _564
REMARK  168  A    between atoms: _564  and  _565
REMARK  169  A    between atoms: _564  and  _567
REMARK  170  A    between atoms: _567  and  _568
REMARK  171  A    between atoms: _574  and  _575
REMARK  172  A    between atoms: _575  and  _576
REMARK  173  A    between atoms: _575  and  _578
REMARK  174  A    between atoms: _578  and  _579
REMARK  175  A    between atoms: _588  and  _589
REMARK  176  A    between atoms: _589  and  _590
REMARK  177  A    between atoms: _589  and  _592
REMARK  178  A    between atoms: _592  and  _593
REMARK  179  A    between atoms: _599  and  _600
REMARK  180  A    between atoms: _600  and  _601
REMARK  181  A    between atoms: _600  and  _603
REMARK  182  A    between atoms: _603  and  _604
REMARK  183  A    between atoms: _610  and  _611
REMARK  184  A    between atoms: _611  and  _612
REMARK  185  A    between atoms: _611  and  _614
REMARK  186  A    between atoms: _614  and  _615
REMARK  187  A    between atoms: _622  and  _623
REMARK  188  A    between atoms: _623  and  _624
REMARK  189  A    between atoms: _623  and  _626
REMARK  190  A    between atoms: _632  and  _633
REMARK  191  A    between atoms: _633  and  _634
REMARK  192  A    between atoms: _633  and  _636
REMARK  193  A    between atoms: _636  and  _637
REMARK  194  A    between atoms: _637  and  _638
REMARK  195  A    between atoms: _637  and  _639
REMARK  196  A    between atoms: _651  and  _652
REMARK  197  A    between atoms: _652  and  _653
REMARK  198  A    between atoms: _652  and  _655
REMARK  199  A    between atoms: _655  and  _656
REMARK  200  A    between atoms: _663  and  _664
REMARK  201  A    between atoms: _664  and  _665
REMARK  202  A    between atoms: _664  and  _667
REMARK  203  A    between atoms: _667  and  _668
REMARK  204  A    between atoms: _668  and  _669
REMARK  205  A    between atoms: _669  and  _670
REMARK  206  A    between atoms: _670  and  _671
REMARK  207  A    between atoms: _685  and  _686
REMARK  208  A    between atoms: _686  and  _687
REMARK  209  A    between atoms: _686  and  _689
REMARK  210  A    between atoms: _689  and  _690
REMARK  211  A    between atoms: _689  and  _691
REMARK  212  A    between atoms: _690  and  _692
REMARK  213  A    between atoms: _704  and  _705
REMARK  214  A    between atoms: _705  and  _706
REMARK  215  A    between atoms: _705  and  _708
REMARK  216  A    between atoms: _708  and  _709
REMARK  217  A    between atoms: _709  and  _710
REMARK  218  A    between atoms: _710  and  _711
REMARK  219  A    between atoms: _728  and  _729
REMARK  220  A    between atoms: _729  and  _730
REMARK  221  A    between atoms: _729  and  _732
REMARK  222  A    between atoms: _732  and  _733
REMARK  223  A    between atoms: _738  and  _739
REMARK  224  A    between atoms: _749  and  _750
REMARK  225  A    between atoms: _750  and  _751
REMARK  226  A    between atoms: _750  and  _753
REMARK  227  A    between atoms: _753  and  _754
REMARK  228  A    between atoms: _754  and  _755
REMARK  229  A    between atoms: _764  and  _765
REMARK  230  A    between atoms: _765  and  _766
REMARK  231  A    between atoms: _765  and  _768
REMARK  232  A    between atoms: _772  and  _773
REMARK  233  A    between atoms: _773  and  _774
REMARK  234  A    between atoms: _773  and  _776
REMARK  235  A    between atoms: _776  and  _777
REMARK  236  A    between atoms: _777  and  _778
REMARK  237  A    between atoms: _777  and  _779
REMARK  238  A    between atoms: _791  and  _792
REMARK  239  A    between atoms: _792  and  _793
REMARK  240  A    between atoms: _792  and  _795
REMARK  241  A    between atoms: _795  and  _796
REMARK  242  A    between atoms: _795  and  _797
REMARK  243  A    between atoms: _805  and  _806
REMARK  244  A    between atoms: _806  and  _807
REMARK  245  A    between atoms: _806  and  _809
REMARK  246  A    between atoms: _809  and  _810
REMARK  247  A    between atoms: _818  and  _819
REMARK  248  A    between atoms: _831  and  _832
REMARK  249  A    between atoms: _832  and  _833
REMARK  250  A    between atoms: _832  and  _835
REMARK  251  A    between atoms: _835  and  _836
REMARK  252  A    between atoms: _842  and  _843
REMARK  253  A    between atoms: _843  and  _844
REMARK  254  A    between atoms: _843  and  _846
REMARK  255  A    between atoms: _846  and  _847
REMARK  256  A    between atoms: _847  and  _848
REMARK  257  A    between atoms: _848  and  _849
REMARK  258  A    between atoms: _849  and  _850
REMARK  259  A    between atoms: _864  and  _865
REMARK  260  A    between atoms: _865  and  _866
REMARK  261  A    between atoms: _865  and  _868
REMARK  262  A    between atoms: _868  and  _869
REMARK  263  A    between atoms: _869  and  _870
REMARK  264  A    between atoms: _869  and  _871
REMARK  265  A    between atoms: _883  and  _884
REMARK  266  A    between atoms: _884  and  _885
REMARK  267  A    between atoms: _884  and  _887
REMARK  268  A    between atoms: _887  and  _888
REMARK  269  A    between atoms: _895  and  _896
REMARK  270  A    between atoms: _896  and  _897
REMARK  271  A    between atoms: _896  and  _899
REMARK  272  A    between atoms: _899  and  _900
REMARK  273  A    between atoms: _906  and  _907
REMARK  274  A    between atoms: _907  and  _908
REMARK  275  A    between atoms: _913  and  _914
REMARK  276  A    between atoms: _914  and  _915
REMARK  277  A    between atoms: _914  and  _917
REMARK  278  A    between atoms: _917  and  _918
REMARK  279  A    between atoms: _918  and  _919
REMARK  280  A    between atoms: _919  and  _920
REMARK  281  A    between atoms: _920  and  _921
REMARK  282  A    between atoms: _935  and  _936
REMARK  283  A    between atoms: _936  and  _937
REMARK  284  A    between atoms: _936  and  _939
REMARK  285  A    between atoms: _939  and  _940
REMARK  286  A    between atoms: _940  and  _941
REMARK  287  A    between atoms: _950  and  _951
REMARK  288  A    between atoms: _951  and  _952
REMARK  289  A    between atoms: _951  and  _954
REMARK  290  A    between atoms: _954  and  _955
REMARK  291  A    between atoms: _955  and  _956
REMARK  292  A    between atoms: _955  and  _957
REMARK  293  A    between atoms: _969  and  _970
REMARK  294  A    between atoms: _970  and  _971
REMARK  295  A    between atoms: _970  and  _973
REMARK  296  A    between atoms: _973  and  _974
REMARK  297  A    between atoms: _986  and  _987
REMARK  298  A    between atoms: _987  and  _988
REMARK  299  A    between atoms: _987  and  _990
REMARK  300  A    between atoms: _990  and  _991
REMARK  301  A    between atoms: _990  and  _992
REMARK  302  A    between atoms: _991  and  _993
REMARK  303  A    between atoms: _1005  and  _1006
REMARK  304  A    between atoms: _1006  and  _1007
REMARK  305  A    between atoms: _1006  and  _1009
REMARK  306  A    between atoms: _1009  and  _1010
REMARK  307  A    between atoms: _1019  and  _1020
REMARK  308  A    between atoms: _1020  and  _1021
REMARK  309  A    between atoms: _1020  and  _1023
REMARK  310  A    between atoms: _1023  and  _1024
REMARK  311  A    between atoms: _1024  and  _1025
REMARK  312  A    between atoms: _1024  and  _1026
REMARK  313  A    between atoms: _1038  and  _1039
REMARK  314  A    between atoms: _1039  and  _1040
REMARK  315  A    between atoms: _1039  and  _1042
REMARK  316  A    between atoms: _1042  and  _1043
REMARK  317  A    between atoms: _1042  and  _1044
REMARK  318  A    between atoms: _1043  and  _1045
REMARK  319  A    between atoms: _1058  and  _1059
REMARK  320  A    between atoms: _1071  and  _1072
REMARK  321  A    between atoms: _1072  and  _1073
REMARK  322  A    between atoms: _1072  and  _1075
REMARK  323  A    between atoms: _1075  and  _1076
REMARK  324  A    between atoms: _1085  and  _1086
REMARK  325  A    between atoms: _1086  and  _1087
REMARK  326  A    between atoms: _1086  and  _1089
REMARK  327  A    between atoms: _1089  and  _1090
REMARK  328  A    between atoms: _1090  and  _1091
REMARK  329  A    between atoms: _1091  and  _1092
REMARK  330  A    between atoms: _1092  and  _1093
REMARK  331  A    between atoms: _1107  and  _1108
REMARK  332  A    between atoms: _1108  and  _1109
REMARK  333  A    between atoms: _1108  and  _1111
REMARK  334  A    between atoms: _1111  and  _1112
REMARK  335  A    between atoms: _1112  and  _1113
REMARK  336  A    between atoms: _1124  and  _1125
REMARK  337  A    between atoms: _1125  and  _1126
REMARK  338  A    between atoms: _1125  and  _1128
REMARK  339  A    between atoms: _1128  and  _1129
REMARK  340  A    between atoms: _1136  and  _1137
REMARK  341  A    between atoms: _1137  and  _1138
REMARK  342  A    between atoms: _1137  and  _1140
REMARK  343  A    between atoms: _1140  and  _1141
REMARK  344  A    between atoms: _1141  and  _1142
REMARK  345  A    between atoms: _1142  and  _1143
REMARK  346  A    between atoms: _1160  and  _1161
REMARK  347  A    between atoms: _1161  and  _1162
REMARK  348  A    between atoms: _1161  and  _1164
REMARK  349  A    between atoms: _1164  and  _1165
REMARK  350  A    between atoms: _1164  and  _1166
REMARK  351  A    between atoms: _1174  and  _1175
REMARK  352  A    between atoms: _1175  and  _1176
REMARK  353  A    between atoms: _1175  and  _1178
REMARK  354  A    between atoms: _1178  and  _1179
REMARK  355  A    between atoms: _1179  and  _1180
REMARK  356  A    between atoms: _1179  and  _1181
REMARK  357  A    between atoms: _1193  and  _1194
REMARK  358  A    between atoms: _1194  and  _1195
REMARK  359  A    between atoms: _1194  and  _1197
REMARK  360  A    between atoms: _1197  and  _1198
REMARK  361  A    between atoms: _1197  and  _1199
REMARK  362  A    between atoms: _1207  and  _1208
REMARK  363  A    between atoms: _1208  and  _1209
REMARK  364  A    between atoms: _1208  and  _1211
REMARK  365  A    between atoms: _1211  and  _1212
REMARK  366  A    between atoms: _1211  and  _1213
REMARK  367  A    between atoms: _1212  and  _1214
REMARK  368  A    between atoms: _1226  and  _1227
REMARK  369  A    between atoms: _1227  and  _1228
REMARK  370  A    between atoms: _1227  and  _1230
REMARK  371  A    between atoms: _1230  and  _1231
REMARK  372  A    between atoms: _1230  and  _1232
REMARK  373  A    between atoms: _1242  and  _1243
REMARK  374  A    between atoms: _1243  and  _1244
REMARK  375  A    between atoms: _1243  and  _1246
REMARK  376  A    between atoms: _1246  and  _1247
REMARK  377  A    between atoms: _1254  and  _1255
REMARK  378  A    between atoms: _1255  and  _1256
REMARK  379  A    between atoms: _1255  and  _1258
REMARK  380  A    between atoms: _1258  and  _1259
REMARK  381  A    between atoms: _1258  and  _1260
REMARK  382  A    between atoms: _1268  and  _1269
REMARK  383  A    between atoms: _1269  and  _1270
REMARK  384  A    between atoms: _1275  and  _1276
REMARK  385  A    between atoms: _1276  and  _1277
REMARK  386  A    between atoms: _1276  and  _1279
REMARK  387  A    between atoms: _1279  and  _1280
REMARK  388  A    between atoms: _1279  and  _1281
REMARK  389  A    between atoms: _1280  and  _1282
REMARK  390  A    between atoms: _1294  and  _1295
REMARK  391  A    between atoms: _1295  and  _1296
REMARK  392  A    between atoms: _1301  and  _1302
REMARK  393  A    between atoms: _1302  and  _1303
REMARK  394  A    between atoms: _1302  and  _1305
REMARK  395  A    between atoms: _1305  and  _1306
REMARK  396  A    between atoms: _1306  and  _1307
REMARK  397  A    between atoms: _1307  and  _1308
REMARK  398  A    between atoms: _1318  and  _1319
REMARK  399  A    between atoms: _1319  and  _1320
REMARK  400  A    between atoms: _1319  and  _1322
REMARK  401  A    between atoms: _1322  and  _1323
REMARK  402  A    between atoms: _1322  and  _1324
REMARK  403  A    between atoms: _1332  and  _1333
REMARK  404  A    between atoms: _1333  and  _1334
REMARK  405  A    between atoms: _1333  and  _1336
REMARK  406  A    between atoms: _1336  and  _1337
REMARK  407  A    between atoms: _1337  and  _1338
REMARK  408  A    between atoms: _1338  and  _1339
REMARK  409  A    between atoms: _1339  and  _1340
REMARK  410  A    between atoms: _1354  and  _1355
REMARK  411  A    between atoms: _1355  and  _1356
REMARK  412  A    between atoms: _1355  and  _1358
REMARK  413  A    between atoms: _1364  and  _1365
REMARK  414  A    between atoms: _1365  and  _1366
REMARK  415  A    between atoms: _1365  and  _1368
REMARK  416  A    between atoms: _1368  and  _1369
REMARK  417  A    between atoms: _1376  and  _1377
REMARK  418  A    between atoms: _1377  and  _1378
REMARK  419  A    between atoms: _1377  and  _1380
REMARK  420  A    between atoms: _1380  and  _1381
REMARK  421  A    between atoms: _1381  and  _1382
REMARK  422  A    between atoms: _1381  and  _1383
REMARK  423  A    between atoms: _1395  and  _1396
REMARK  424  A    between atoms: _1396  and  _1399
REMARK  425  A    between atoms: _1399  and  _1400
REMARK  426  A    between atoms: _1399  and  _1401
REMARK  427  A    between atoms: _1400  and  _1402
REMARK  428  A    between atoms: _1422  and  _1425
REMARK  429  A    between atoms: _1424  and  _1428
REMARK  430  A    between atoms: _1425  and  _1427
REMARK  431  A    between atoms: _1443  and  _1444
REMARK  432  A    between atoms: _1443  and  _1446
REMARK  433  A    between atoms: _1446  and  _1447
REMARK  434  A    between atoms: _1457  and  _1458
REMARK  435  A    between atoms: _1458  and  _1459
REMARK  436  A    between atoms: _1458  and  _1461
REMARK  437  A    between atoms: _1461  and  _1462
REMARK  438  A    between atoms: _1462  and  _1463
REMARK  439  A    between atoms: _1462  and  _1464
REMARK  440  A    between atoms: _1476  and  _1477
REMARK  441  A    between atoms: _1477  and  _1478
REMARK  442  A    between atoms: _1483  and  _1484
REMARK  443  A    between atoms: _1484  and  _1485
REMARK  444  A    between atoms: _1484  and  _1487
REMARK  445  A    between atoms: _1487  and  _1488
REMARK  446  A    between atoms: _1487  and  _1489
REMARK  447  A    between atoms: _1497  and  _1498
REMARK  448  A    between atoms: _1498  and  _1499
REMARK  449  A    between atoms: _1498  and  _1501
REMARK  450  A    between atoms: _1501  and  _1502
REMARK  451  A    between atoms: _1501  and  _1503
REMARK  452  A    between atoms: _1502  and  _1504
REMARK  453  A    between atoms: _1516  and  _1517
REMARK  454  A    between atoms: _1517  and  _1518
REMARK  455  A    between atoms: _1517  and  _1520
REMARK  456  A    between atoms: _1526  and  _1527
REMARK  457  A    between atoms: _1527  and  _1528
REMARK  458  A    between atoms: _1527  and  _1530
REMARK  459  A    between atoms: _1530  and  _1531
REMARK  460  A    between atoms: _1531  and  _1532
REMARK  461  A    between atoms: _1532  and  _1533
REMARK  462  A    between atoms: _1533  and  _1534
REMARK  463  A    between atoms: _1548  and  _1549
REMARK  464  A    between atoms: _1549  and  _1550
REMARK  465  A    between atoms: _1549  and  _1552
REMARK  466  A    between atoms: _1552  and  _1553
REMARK  467  A    between atoms: _1559  and  _1560
REMARK  468  A    between atoms: _1560  and  _1561
REMARK  469  A    between atoms: _1566  and  _1567
REMARK  470  A    between atoms: _1567  and  _1568
REMARK  471  A    between atoms: _1567  and  _1570
REMARK  472  A    between atoms: _1570  and  _1571
REMARK  473  A    between atoms: _1570  and  _1572
REMARK  474  A    between atoms: _1580  and  _1581
REMARK  475  A    between atoms: _1581  and  _1582
REMARK  476  A    between atoms: _1581  and  _1584
REMARK  477  A    between atoms: _1584  and  _1585
REMARK  478  A    between atoms: _1585  and  _1586
REMARK  479  A    between atoms: _1586  and  _1587
REMARK  480  A    between atoms: _1587  and  _1588
REMARK  481  A    between atoms: _1602  and  _1603
REMARK  482  A    between atoms: _1603  and  _1604
REMARK  483  A    between atoms: _1603  and  _1606
REMARK  484  A    between atoms: _1612  and  _1613
REMARK  485  A    between atoms: _1613  and  _1614
REMARK  486  A    between atoms: _1613  and  _1616
REMARK  487  A    between atoms: _1616  and  _1617
REMARK  488  A    between atoms: _1632  and  _1633
REMARK  489  A    between atoms: _1633  and  _1634
REMARK  490  A    between atoms: _1633  and  _1636
REMARK  491  A    between atoms: _1636  and  _1637
REMARK  492  A    between atoms: _1637  and  _1638
REMARK  493  A    between atoms: _1638  and  _1639
REMARK  494  A    between atoms: _1649  and  _1650
REMARK  495  A    between atoms: _1650  and  _1651
REMARK  496  A    between atoms: _1650  and  _1653
REMARK  497  A    between atoms: _1653  and  _1654
REMARK  498  A    between atoms: _1654  and  _1655
REMARK  499  A    between atoms: _1664  and  _1665
REMARK  500  A    between atoms: _1665  and  _1666
REMARK  501  A    between atoms: _1665  and  _1668
REMARK  502  A    between atoms: _1674  and  _1675
REMARK  503  A    between atoms: _1675  and  _1676
REMARK  504  A    between atoms: _1675  and  _1678
REMARK  505  A    between atoms: _1678  and  _1679
REMARK  506  A    between atoms: _1679  and  _1680
REMARK  507  A    between atoms: _1679  and  _1681
REMARK  508  A    between atoms: _1693  and  _1694
REMARK  509  A    between atoms: _1694  and  _1695
REMARK  510  A    between atoms: _1694  and  _1697
REMARK  511  A    between atoms: _1697  and  _1698
REMARK  512  A    between atoms: _1698  and  _1699
REMARK  513  A    between atoms: _1710  and  _1711
REMARK  514  A    between atoms: _1711  and  _1712
REMARK  515  A    between atoms: _1711  and  _1714
REMARK  516  A    between atoms: _1720  and  _1721
REMARK  517  A    between atoms: _1721  and  _1722
REMARK  518  A    between atoms: _1727  and  _1728
REMARK  519  A    between atoms: _1728  and  _1729
REMARK  520  A    between atoms: _1728  and  _1731
REMARK  521  A    between atoms: _1737  and  _1738
REMARK  522  A    between atoms: _1738  and  _1739
REMARK  523  A    between atoms: _1738  and  _1741
REMARK  524  A    between atoms: _1741  and  _1742
REMARK  525  A    between atoms: _1749  and  _1750
REMARK  526  A    between atoms: _1750  and  _1751
REMARK  527  A    between atoms: _1750  and  _1753
REMARK  528  A    between atoms: _1753  and  _1754
REMARK  529  A    between atoms: _1753  and  _1755
REMARK  530  A    between atoms: _1754  and  _1756
REMARK  531  A    between atoms: _1768  and  _1769
REMARK  532  A    between atoms: _1769  and  _1772
REMARK  533  A    between atoms: _1772  and  _1773
REMARK  534  A    between atoms: _1791  and  _1793
REMARK  535  A    between atoms: _1792  and  _1794
REMARK  536  A    between atoms: _1814  and  _1815
REMARK  537  A    between atoms: _1814  and  _1817
REMARK  538  A    between atoms: _1817  and  _1818
REMARK  539  A    between atoms: _1817  and  _1819
REMARK  540  A    between atoms: _1818  and  _1820
REMARK  541  A    between atoms: _1833  and  _1834
REMARK  542  A    between atoms: _1834  and  _1835
REMARK  543  A    between atoms: _1840  and  _1841
REMARK  544  A    between atoms: _1841  and  _1842
REMARK  545  A    between atoms: _1841  and  _1844
REMARK  546  A    between atoms: _1844  and  _1845
REMARK  547  A    between atoms: _1845  and  _1846
REMARK  548  A    between atoms: _1857  and  _1858
REMARK  549  A    between atoms: _1858  and  _1859
REMARK  550  A    between atoms: _1858  and  _1861
REMARK  551  A    between atoms: _1861  and  _1862
REMARK  552  A    between atoms: _1877  and  _1878
REMARK  553  A    between atoms: _1878  and  _1879
REMARK  554  A    between atoms: _1884  and  _1885
REMARK  555  A    between atoms: _1885  and  _1886
REMARK  556  A    between atoms: _1885  and  _1888
REMARK  557  A    between atoms: _1888  and  _1889
REMARK  558  A    between atoms: _1888  and  _1890
REMARK  559  A    between atoms: _1900  and  _1901
REMARK  560  A    between atoms: _1901  and  _1902
REMARK  561  A    between atoms: _1907  and  _1908
REMARK  562  A    between atoms: _1908  and  _1909
REMARK  563  A    between atoms: _1908  and  _1911
REMARK  564  A    between atoms: _1911  and  _1912
REMARK  565  A    between atoms: _1927  and  _1928
REMARK  566  A    between atoms: _1928  and  _1929
REMARK  567  A    between atoms: _1928  and  _1931
REMARK  568  A    between atoms: _1931  and  _1932
REMARK  569  A    between atoms: _1937  and  _1938
REMARK  570  A    between atoms: _1948  and  _1949
REMARK  571  A    between atoms: _1949  and  _1950
REMARK  572  A    between atoms: _1949  and  _1952
REMARK  573  A    between atoms: _1952  and  _1953
REMARK  574  A    between atoms: _1959  and  _1960
REMARK  575  A    between atoms: _1960  and  _1961
REMARK  576  A    between atoms: _1960  and  _1963
REMARK  577  A    between atoms: _1969  and  _1970
REMARK  578  A    between atoms: _1970  and  _1971
REMARK  579  A    between atoms: _1970  and  _1973
REMARK  580  A    between atoms: _1973  and  _1974
REMARK  581  A    between atoms: _1979  and  _1980
REMARK  582  A    between atoms: _1990  and  _1991
REMARK  583  A    between atoms: _1991  and  _1992
REMARK  584  A    between atoms: _1991  and  _1994
REMARK  585  A    between atoms: _1994  and  _1995
REMARK  586  A    between atoms: _1995  and  _1996
REMARK  587  A    between atoms: _1995  and  _1997
REMARK  588  A    between atoms: _2009  and  _2010
REMARK  589  A    between atoms: _2010  and  _2011
REMARK  590  A    between atoms: _2010  and  _2013
REMARK  591  A    between atoms: _2013  and  _2014
REMARK  592  A    between atoms: _2013  and  _2015
REMARK  593  A    between atoms: _2025  and  _2026
REMARK  594  A    between atoms: _2026  and  _2027
REMARK  595  A    between atoms: _2026  and  _2029
REMARK  596  A    between atoms: _2035  and  _2036
REMARK  597  A    between atoms: _2036  and  _2037
REMARK  598  A    between atoms: _2036  and  _2039
REMARK  599  A    between atoms: _2039  and  _2040
REMARK  600  A    between atoms: _2040  and  _2041
REMARK  601  A    between atoms: _2050  and  _2051
REMARK  602  A    between atoms: _2051  and  _2052
REMARK  603  A    between atoms: _2051  and  _2054
REMARK  604  A    between atoms: _2054  and  _2055
REMARK  605  A    between atoms: _2055  and  _2056
REMARK  606  A    between atoms: _2056  and  _2057
REMARK  607  A    between atoms: _2057  and  _2058
REMARK  608  A    between atoms: _2072  and  _2073
REMARK  609  A    between atoms: _2073  and  _2074
REMARK  610  A    between atoms: _2073  and  _2076
REMARK  611  A    between atoms: _2076  and  _2077
REMARK  612  A    between atoms: _2076  and  _2078
REMARK  613  A    between atoms: _2088  and  _2089
REMARK  614  A    between atoms: _2089  and  _2090
REMARK  615  A    between atoms: _2089  and  _2092
REMARK  616  A    between atoms: _2092  and  _2093
REMARK  617  A    between atoms: _2092  and  _2094
REMARK  618  A    between atoms: _2102  and  _2103
REMARK  619  A    between atoms: _2103  and  _2104
REMARK  620  A    between atoms: _2103  and  _2106
REMARK  621  A    between atoms: _2106  and  _2107
REMARK  622  A    between atoms: _2106  and  _2108
REMARK  623  A    between atoms: _2118  and  _2119
REMARK  624  A    between atoms: _2119  and  _2120
REMARK  625  A    between atoms: _2119  and  _2122
REMARK  626  A    between atoms: _2122  and  _2123
REMARK  627  A    between atoms: _2122  and  _2124
REMARK  628  A    between atoms: _2123  and  _2125
REMARK  629  A    between atoms: _2137  and  _2138
REMARK  630  A    between atoms: _2138  and  _2139
REMARK  631  A    between atoms: _2138  and  _2141
REMARK  632  A    between atoms: _2141  and  _2142
REMARK  633  A    between atoms: _2141  and  _2143
REMARK  634  A    between atoms: _2151  and  _2152
REMARK  635  A    between atoms: _2152  and  _2153
REMARK  636  A    between atoms: _2152  and  _2155
REMARK  637  A    between atoms: _2155  and  _2156
REMARK  638  A    between atoms: _2156  and  _2157
REMARK  639  A    between atoms: _2157  and  _2158
REMARK  640  A    between atoms: _2158  and  _2159
REMARK  641  A    between atoms: _2173  and  _2174
REMARK  642  A    between atoms: _2174  and  _2175
REMARK  643  A    between atoms: _2174  and  _2177
REMARK  644  A    between atoms: _2177  and  _2178
REMARK  645  A    between atoms: _2190  and  _2191
REMARK  646  A    between atoms: _2191  and  _2192
REMARK  647  A    between atoms: _2191  and  _2194
REMARK  648  A    between atoms: _2194  and  _2195
REMARK  649  A    between atoms: _2204  and  _2205
REMARK  650  A    between atoms: _2205  and  _2206
REMARK  651  A    between atoms: _2205  and  _2208
REMARK  652  A    between atoms: _2208  and  _2209
REMARK  653  A    between atoms: _2216  and  _2217
REMARK  654  A    between atoms: _2217  and  _2218
REMARK  655  A    between atoms: _2217  and  _2220
REMARK  656  A    between atoms: _2220  and  _2221
REMARK  657  A    between atoms: _2228  and  _2229
REMARK  658  A    between atoms: _2229  and  _2230
REMARK  659  A    between atoms: _2229  and  _2232
REMARK  660  A    between atoms: _2232  and  _2233
REMARK  661  A    between atoms: _2233  and  _2234
REMARK  662  A    between atoms: _2243  and  _2244
REMARK  663  A    between atoms: _2244  and  _2245
REMARK  664  A    between atoms: _2244  and  _2247
REMARK  665  A    between atoms: _2247  and  _2248
REMARK  666  A    between atoms: _2248  and  _2249
REMARK  667  A    between atoms: _2260  and  _2261
REMARK  668  A    between atoms: _2261  and  _2262
REMARK  669  A    between atoms: _2261  and  _2264
REMARK  670  A    between atoms: _2264  and  _2265
REMARK  671  A    between atoms: _2270  and  _2271
REMARK  672  A    between atoms: _2281  and  _2282
REMARK  673  A    between atoms: _2282  and  _2283
REMARK  674  A    between atoms: _2282  and  _2285
REMARK  675  A    between atoms: _2291  and  _2292
REMARK  676  A    between atoms: _2292  and  _2293
REMARK  677  A    between atoms: _2292  and  _2295
REMARK  678  A    between atoms: _2295  and  _2296
REMARK  679  A    between atoms: _2315  and  _2316
REMARK  680  A    between atoms: _2316  and  _2317
REMARK  681  A    between atoms: _2316  and  _2319
REMARK  682  A    between atoms: _2319  and  _2320
REMARK  683  A    between atoms: _2320  and  _2321
REMARK  684  A    between atoms: _2330  and  _2331
REMARK  685  A    between atoms: _2331  and  _2332
REMARK  686  A    between atoms: _2331  and  _2334
REMARK  687  A    between atoms: _2334  and  _2335
REMARK  688  A    between atoms: _2341  and  _2342
REMARK  689  A    between atoms: _2342  and  _2343
REMARK  690  A    between atoms: _2342  and  _2345
REMARK  691  A    between atoms: _2345  and  _2346
REMARK  692  A    between atoms: _2352  and  _2353
REMARK  693  A    between atoms: _2353  and  _2354
REMARK  694  A    between atoms: _2353  and  _2356
REMARK  695  A    between atoms: _2362  and  _2363
REMARK  696  A    between atoms: _2363  and  _2364
REMARK  697  A    between atoms: _2369  and  _2370
REMARK  698  A    between atoms: _2370  and  _2371
REMARK  699  A    between atoms: _2376  and  _2377
REMARK  700  A    between atoms: _2377  and  _2378
REMARK  701  A    between atoms: _2377  and  _2380
REMARK  702  A    between atoms: _2380  and  _2381
REMARK  703  A    between atoms: _2387  and  _2388
REMARK  704  A    between atoms: _2388  and  _2389
REMARK  705  A    between atoms: _2388  and  _2391
REMARK  706  A    between atoms: _2391  and  _2392
REMARK  707  A    between atoms: _2407  and  _2408
REMARK  708  A    between atoms: _2408  and  _2409
REMARK  709  A    between atoms: _2408  and  _2411
REMARK  710  A    between atoms: _2411  and  _2412
REMARK  711  A    between atoms: _2411  and  _2413
REMARK  712  A    between atoms: _2421  and  _2422
REMARK  713  A    between atoms: _2422  and  _2423
REMARK  714  A    between atoms: _2422  and  _2425
REMARK  715  A    between atoms: _2425  and  _2426
REMARK  716  A    between atoms: _2425  and  _2427
REMARK  717  A    between atoms: _2437  and  _2438
REMARK  718  A    between atoms: _2438  and  _2439
REMARK  719  A    between atoms: _2438  and  _2441
REMARK  720  A    between atoms: _2441  and  _2442
REMARK  721  A    between atoms: _2442  and  _2443
REMARK  722  A    between atoms: _2443  and  _2444
REMARK  723  A    between atoms: _2461  and  _2462
REMARK  724  A    between atoms: _2462  and  _2463
REMARK  725  A    between atoms: _2462  and  _2465
REMARK  726  A    between atoms: _2465  and  _2466
REMARK  727  A    between atoms: _2465  and  _2467
REMARK  728  A    between atoms: _2475  and  _2476
REMARK  729  A    between atoms: _2476  and  _2477
REMARK  730  A    between atoms: _2476  and  _2479
REMARK  731  A    between atoms: _2479  and  _2480
REMARK  732  A    between atoms: _2487  and  _2488
REMARK  733  A    between atoms: _2488  and  _2489
REMARK  734  A    between atoms: _2488  and  _2491
REMARK  735  A    between atoms: _2491  and  _2492
REMARK  736  A    between atoms: _2491  and  _2493
REMARK  737  A    between atoms: _2501  and  _2502
REMARK  738  A    between atoms: _2502  and  _2503
REMARK  739  A    between atoms: _2508  and  _2509
REMARK  740  A    between atoms: _2509  and  _2510
REMARK  741  A    between atoms: _2509  and  _2512
REMARK  742  A    between atoms: _2512  and  _2513
REMARK  743  A    between atoms: _2513  and  _2514
REMARK  744  A    between atoms: _2524  and  _2525
REMARK  745  A    between atoms: _2537  and  _2538
REMARK  746  A    between atoms: _2538  and  _2539
REMARK  747  A    between atoms: _2538  and  _2541
REMARK  748  A    between atoms: _2541  and  _2542
REMARK  749  A    between atoms: _2542  and  _2543
REMARK  750  A    between atoms: _2543  and  _2544
REMARK  751  A    between atoms: _2554  and  _2555
REMARK  752  A    between atoms: _2555  and  _2556
REMARK  753  A    between atoms: _2561  and  _2562
REMARK  754  A    between atoms: _2562  and  _2563
REMARK  755  A    between atoms: _2562  and  _2565
REMARK  756  A    between atoms: _2565  and  _2566
REMARK  757  A    between atoms: _2566  and  _2567
REMARK  758  A    between atoms: _2567  and  _2568
REMARK  759  A    between atoms: _2585  and  _2586
REMARK  760  A    between atoms: _2586  and  _2587
REMARK  761  A    between atoms: _2592  and  _2593
REMARK  762  A    between atoms: _2593  and  _2594
REMARK  763  A    between atoms: _2593  and  _2596
REMARK  764  A    between atoms: _2596  and  _2597
REMARK  765  A    between atoms: _2596  and  _2598
REMARK  766  A    between atoms: _2606  and  _2607
REMARK  767  A    between atoms: _2607  and  _2608
REMARK  768  A    between atoms: _2607  and  _2610
REMARK  769  A    between atoms: _2610  and  _2611
REMARK  770  A    between atoms: _2611  and  _2612
REMARK  771  A    between atoms: _2612  and  _2613
REMARK  772  A    between atoms: _2613  and  _2614
REMARK  773  A    between atoms: _2628  and  _2629
REMARK  774  A    between atoms: _2629  and  _2630
REMARK  775  A    between atoms: _2629  and  _2632
REMARK  776  A    between atoms: _2632  and  _2633
REMARK  777  A    between atoms: _2632  and  _2634
REMARK  778  A    between atoms: _2644  and  _2645
REMARK  779  A    between atoms: _2645  and  _2646
REMARK  780  A    between atoms: _2645  and  _2648
REMARK  781  A    between atoms: _2648  and  _2649
REMARK  782  A    between atoms: _2648  and  _2650
REMARK  783  A    between atoms: _2649  and  _2651
REMARK  784  A    between atoms: _2663  and  _2664
REMARK  785  A    between atoms: _2664  and  _2665
REMARK  786  A    between atoms: _2664  and  _2667
REMARK  787  A    between atoms: _2667  and  _2668
REMARK  788  A    between atoms: _2668  and  _2669
REMARK  789  A    between atoms: _2668  and  _2670
REMARK  790  A    between atoms: _2682  and  _2683
REMARK  791  A    between atoms: _2683  and  _2684
REMARK  792  A    between atoms: _2683  and  _2686
REMARK  793  A    between atoms: _2686  and  _2687
REMARK  794  A    between atoms: _2699  and  _2700
REMARK  795  A    between atoms: _2700  and  _2701
REMARK  796  A    between atoms: _2700  and  _2703
REMARK  797  A    between atoms: _2703  and  _2704
REMARK  798  A    between atoms: _2704  and  _2705
REMARK  799  A    between atoms: _2704  and  _2706
REMARK  800  A    between atoms: _2718  and  _2719
REMARK  801  A    between atoms: _2719  and  _2720
REMARK  802  A    between atoms: _2719  and  _2722
REMARK  803  A    between atoms: _2722  and  _2723
REMARK  804  A    between atoms: _2723  and  _2724
REMARK  805  A    between atoms: _2724  and  _2725
REMARK  806  A    between atoms: _2725  and  _2726
REMARK  807  A    between atoms: _2740  and  _2741
REMARK  808  A    between atoms: _2741  and  _2742
REMARK  809  A    between atoms: _2741  and  _2744
REMARK  810  A    between atoms: _2744  and  _2745
REMARK  811  A    between atoms: _2745  and  _2746
REMARK  812  A    between atoms: _2755  and  _2756
REMARK  813  A    between atoms: _2756  and  _2757
REMARK  814  A    between atoms: _2756  and  _2759
REMARK  815  A    between atoms: _2759  and  _2760
REMARK  816  A    between atoms: _2767  and  _2768
REMARK  817  A    between atoms: _2768  and  _2769
REMARK  818  A    between atoms: _2768  and  _2771
REMARK  819  A    between atoms: _2771  and  _2772
REMARK  820  A    between atoms: _2772  and  _2773
REMARK  821  A    between atoms: _2784  and  _2785
REMARK  822  A    between atoms: _2785  and  _2786
REMARK  823  A    between atoms: _2785  and  _2788
REMARK  824  A    between atoms: _2788  and  _2789
REMARK  825  A    between atoms: _2788  and  _2790
REMARK  826  A    between atoms: _2798  and  _2799
REMARK  827  A    between atoms: _2799  and  _2800
REMARK  828  A    between atoms: _2799  and  _2802
REMARK  829  A    between atoms: _2802  and  _2803
REMARK  830  A    between atoms: _2803  and  _2804
REMARK  831  A    between atoms: _2813  and  _2814
REMARK  832  A    between atoms: _2814  and  _2815
REMARK  833  A    between atoms: _2814  and  _2817
REMARK  834  A    between atoms: _2817  and  _2818
REMARK  835  A    between atoms: _2823  and  _2824
REMARK  836  A    between atoms: _2834  and  _2835
REMARK  837  A    between atoms: _2835  and  _2838
REMARK  838  A    between atoms: _2838  and  _2839
REMARK  839  A    between atoms: _2839  and  _2840
REMARK  840  A    between atoms: _2839  and  _2841
REMARK  841  A    between atoms: _2884  and  _2885
REMARK  842  A    between atoms: _2884  and  _2887
REMARK  843  A    between atoms: _2887  and  _2888
REMARK  844  A    between atoms: _2888  and  _2889
REMARK  845  A    between atoms: _2899  and  _2900
REMARK  846  A    between atoms: _2900  and  _2901
REMARK  847  A    between atoms: _2900  and  _2903
REMARK  848  A    between atoms: _2903  and  _2904
REMARK  849  A    between atoms: _2904  and  _2905
REMARK  850  A    between atoms: _2905  and  _2906
REMARK  851  A    between atoms: _2923  and  _2924
REMARK  852  A    between atoms: _2924  and  _2925
REMARK  853  A    between atoms: _2924  and  _2927
REMARK  854  A    between atoms: _2927  and  _2928
REMARK  855  A    between atoms: _2928  and  _2929
REMARK  856  A    between atoms: _2929  and  _2930
REMARK  857  A    between atoms: _2947  and  _2948
REMARK  858  A    between atoms: _2948  and  _2949
REMARK  859  A    between atoms: _2948  and  _2951
REMARK  860  A    between atoms: _2951  and  _2952
REMARK  861  A    between atoms: _2951  and  _2953
REMARK  862  A    between atoms: _2952  and  _2954
REMARK  863  A    between atoms: _2966  and  _2967
REMARK  864  A    between atoms: _2967  and  _2968
REMARK  865  A    between atoms: _2967  and  _2970
REMARK  866  A    between atoms: _2970  and  _2971
REMARK  867  A    between atoms: _2971  and  _2972
REMARK  868  A    between atoms: _2972  and  _2973
REMARK  869  A    between atoms: _2973  and  _2974
REMARK  870  A    between atoms: _2988  and  _2989
REMARK  871  A    between atoms: _2989  and  _2990
REMARK  872  A    between atoms: _2989  and  _2992
REMARK  873  A    between atoms: _2992  and  _2993
REMARK  874  A    between atoms: _2993  and  _2994
REMARK  875  A    between atoms: _3003  and  _3004
REMARK  876  A    between atoms: _3004  and  _3005
REMARK  877  A    between atoms: _3004  and  _3007
REMARK  878  A    between atoms: _3007  and  _3008
REMARK  879  A    between atoms: _3007  and  _3009
REMARK  880  A    between atoms: _3008  and  _3010
REMARK  881  A    between atoms: _3022  and  _3023
REMARK  882  A    between atoms: _3023  and  _3024
REMARK  883  A    between atoms: _3023  and  _3026
REMARK  884  A    between atoms: _3026  and  _3027
REMARK  885  A    between atoms: _3026  and  _3028
REMARK  886  A    between atoms: _3038  and  _3039
REMARK  887  A    between atoms: _3039  and  _3040
REMARK  888  A    between atoms: _3039  and  _3042
REMARK  889  A    between atoms: _3042  and  _3043
REMARK  890  A    between atoms: _3043  and  _3044
REMARK  891  A    between atoms: _3044  and  _3045
REMARK  892  A    between atoms: _3045  and  _3046
REMARK  893  A    between atoms: _3060  and  _3061
REMARK  894  A    between atoms: _3061  and  _3062
REMARK  895  A    between atoms: _3061  and  _3064
REMARK  896  A    between atoms: _3064  and  _3065
REMARK  897  A    between atoms: _3065  and  _3066
REMARK  898  A    between atoms: _3066  and  _3067
REMARK  899  A    between atoms: _3067  and  _3068
REMARK  900  A    between atoms: _3082  and  _3083
REMARK  901  A    between atoms: _3083  and  _3084
REMARK  902  A    between atoms: _3083  and  _3086
REMARK  903  A    between atoms: _3086  and  _3087
REMARK  904  A    between atoms: _3099  and  _3100
REMARK  905  A    between atoms: _3100  and  _3101
REMARK  906  A    between atoms: _3100  and  _3103
REMARK  907  A    between atoms: _3103  and  _3104
REMARK  908  A    between atoms: _3110  and  _3111
REMARK  909  A    between atoms: _3111  and  _3112
REMARK  910  A    between atoms: _3111  and  _3114
REMARK  911  A    between atoms: _3114  and  _3115
REMARK  912  A    between atoms: _3115  and  _3116
REMARK  913  A    between atoms: _3127  and  _3128
REMARK  914  A    between atoms: _3128  and  _3129
REMARK  915  A    between atoms: _3128  and  _3131
REMARK  916  A    between atoms: _3131  and  _3132
REMARK  917  A    between atoms: _3147  and  _3148
REMARK  918  A    between atoms: _3148  and  _3149
REMARK  919  A    between atoms: _3148  and  _3151
REMARK  920  A    between atoms: _3151  and  _3152
REMARK  921  A    between atoms: _3151  and  _3153
REMARK  922  A    between atoms: _3152  and  _3154
REMARK  923  A    between atoms: _3166  and  _3167
REMARK  924  A    between atoms: _3167  and  _3168
REMARK  925  A    between atoms: _3173  and  _3174
REMARK  926  A    between atoms: _3174  and  _3175
REMARK  927  A    between atoms: _3174  and  _3177
REMARK  928  A    between atoms: _3177  and  _3178
REMARK  929  A    between atoms: _3183  and  _3184
REMARK  930  A    between atoms: _3195  and  _3196
REMARK  931  A    between atoms: _3208  and  _3209
REMARK  932  A    between atoms: _3209  and  _3210
REMARK  933  A    between atoms: _3209  and  _3212
REMARK  934  A    between atoms: _3212  and  _3213
REMARK  935  A    between atoms: _3212  and  _3214
REMARK  936  A    between atoms: _3213  and  _3215
REMARK  937  A    between atoms: _3227  and  _3228
REMARK  938  A    between atoms: _3228  and  _3229
REMARK  939  A    between atoms: _3228  and  _3231
REMARK  940  A    between atoms: _3231  and  _3232
REMARK  941  A    between atoms: _3231  and  _3233
REMARK  942  A    between atoms: _3241  and  _3242
REMARK  943  A    between atoms: _3242  and  _3243
REMARK  944  A    between atoms: _3242  and  _3245
REMARK  945  A    between atoms: _3245  and  _3246
REMARK  946  A    between atoms: _3246  and  _3247
REMARK  947  A    between atoms: _3246  and  _3248
REMARK  948  A    between atoms: _3260  and  _3261
REMARK  949  A    between atoms: _3261  and  _3262
REMARK  950  A    between atoms: _3261  and  _3264
REMARK  951  A    between atoms: _3264  and  _3265
REMARK  952  A    between atoms: _3280  and  _3281
REMARK  953  A    between atoms: _3281  and  _3282
REMARK  954  A    between atoms: _3281  and  _3284
REMARK  955  A    between atoms: _3284  and  _3285
REMARK  956  A    between atoms: _3284  and  _3286
REMARK  957  A    between atoms: _3296  and  _3297
REMARK  958  A    between atoms: _3297  and  _3298
REMARK  959  A    between atoms: _3297  and  _3300
REMARK  960  A    between atoms: _3300  and  _3301
REMARK  961  A    between atoms: _3301  and  _3302
REMARK                            x       y       z     vdW  Elec       q    Type
REMARK                         _______ _______ _______ _____ _____    ______ ____
ROOT
ATOM      1  H   UNK     1     -10.195  19.972  43.182  0.00  0.00    +0.000 HD
ENDROOT
TORSDOF 0
REMARK  Name = /Users/mlugowska/PhD/ML_residence_time_prediction/protein_files/5J20_protein.pdb
REMARK  961 active torsions:
REMARK  status: ('A' for Active; 'I' for Inactive)
REMARK    1  A    between atoms: _2  and  _3
REMARK    2  A    between atoms: _2  and  _5
REMARK    3  A    between atoms: _10  and  _11
REMARK    4  A    between atoms: _11  and  _12
REMARK    5  A    between atoms: _11  and  _14
REMARK    6  A    between atoms: _14  and  _15
REMARK    7  A    between atoms: _14  and  _16
REMARK    8  A    between atoms: _26  and  _27
REMARK    9  A    between atoms: _27  and  _28
REMARK   10  A    between atoms: _27  and  _30
REMARK   11  A    between atoms: _30  and  _31
REMARK   12  A    between atoms: _31  and  _32
REMARK   13  A    between atoms: _41  and  _42
REMARK   14  A    between atoms: _42  and  _43
REMARK   15  A    between atoms: _42  and  _45
REMARK   16  A    between atoms: _45  and  _46
REMARK   17  A    between atoms: _45  and  _47
REMARK   18  A    between atoms: _55  and  _56
REMARK   19  A    between atoms: _56  and  _57
REMARK   20  A    between atoms: _56  and  _59
REMARK   21  A    between atoms: _59  and  _60
REMARK   22  A    between atoms: _75  and  _76
REMARK   23  A    between atoms: _76  and  _77
REMARK   24  A    between atoms: _76  and  _79
REMARK   25  A    between atoms: _85  and  _86
REMARK   26  A    between atoms: _86  and  _87
REMARK   27  A    between atoms: _86  and  _89
REMARK   28  A    between atoms: _89  and  _90
REMARK   29  A    between atoms: _105  and  _106
REMARK   30  A    between atoms: _106  and  _107
REMARK   31  A    between atoms: _106  and  _109
REMARK   32  A    between atoms: _109  and  _110
REMARK   33  A    between atoms: _110  and  _111
REMARK   34  A    between atoms: _122  and  _123
REMARK   35  A    between atoms: _123  and  _124
REMARK   36  A    between atoms: _123  and  _126
REMARK   37  A    between atoms: _132  and  _133
REMARK   38  A    between atoms: _133  and  _134
REMARK   39  A    between atoms: _133  and  _136
REMARK   40  A    between atoms: _136  and  _137
REMARK   41  A    between atoms: _137  and  _138
REMARK   42  A    between atoms: _147  and  _148
REMARK   43  A    between atoms: _148  and  _149
REMARK   44  A    between atoms: _148  and  _151
REMARK   45  A    between atoms: _151  and  _152
REMARK   46  A    between atoms: _151  and  _153
REMARK   47  A    between atoms: _152  and  _154
REMARK   48  A    between atoms: _166  and  _167
REMARK   49  A    between atoms: _167  and  _168
REMARK   50  A    between atoms: _167  and  _170
REMARK   51  A    between atoms: _176  and  _177
REMARK   52  A    between atoms: _177  and  _178
REMARK   53  A    between atoms: _177  and  _180
REMARK   54  A    between atoms: _180  and  _181
REMARK   55  A    between atoms: _181  and  _182
REMARK   56  A    between atoms: _193  and  _194
REMARK   57  A    between atoms: _194  and  _195
REMARK   58  A    between atoms: _194  and  _197
REMARK   59  A    between atoms: _197  and  _198
REMARK   60  A    between atoms: _198  and  _199
REMARK   61  A    between atoms: _198  and  _200
REMARK   62  A    between atoms: _212  and  _213
REMARK   63  A    between atoms: _213  and  _214
REMARK   64  A    between atoms: _213  and  _216
REMARK   65  A    between atoms: _216  and  _217
REMARK   66  A    between atoms: _217  and  _218
REMARK   67  A    between atoms: _218  and  _219
REMARK   68  A    between atoms: _229  and  _230
REMARK   69  A    between atoms: _230  and  _231
REMARK   70  A    between atoms: _230  and  _233
REMARK   71  A    between atoms: _233  and  _234
REMARK   72  A    between atoms: _240  and  _241
REMARK   73  A    between atoms: _241  and  _242
REMARK   74  A    between atoms: _241  and  _244
REMARK   75  A    between atoms: _244  and  _245
REMARK   76  A    between atoms: _245  and  _246
REMARK   77  A    between atoms: _245  and  _247
REMARK   78  A    between atoms: _259  and  _260
REMARK   79  A    between atoms: _260  and  _261
REMARK   80  A    between atoms: _260  and  _263
REMARK   81  A    between atoms: _263  and  _264
REMARK   82  A    between atoms: _263  and  _265
REMARK   83  A    between atoms: _264  and  _266
REMARK   84  A    between atoms: _278  and  _279
REMARK   85  A    between atoms: _279  and  _280
REMARK   86  A    between atoms: _279  and  _282
REMARK   87  A    between atoms: _282  and  _283
REMARK   88  A    between atoms: _282  and  _284
REMARK   89  A    between atoms: _283  and  _285
REMARK   90  A    between atoms: _297  and  _298
REMARK   91  A    between atoms: _298  and  _299
REMARK   92  A    between atoms: _298  and  _301
REMARK   93  A    between atoms: _301  and  _302
REMARK   94  A    between atoms: _311  and  _312
REMARK   95  A    between atoms: _312  and  _313
REMARK   96  A    between atoms: _312  and  _315
REMARK   97  A    between atoms: _315  and  _316
REMARK   98  A    between atoms: _315  and  _317
REMARK   99  A    between atoms: _325  and  _326
REMARK  100  A    between atoms: _326  and  _327
REMARK  101  A    between atoms: _326  and  _329
REMARK  102  A    between atoms: _329  and  _330
REMARK  103  A    between atoms: _345  and  _346
REMARK  104  A    between atoms: _346  and  _347
REMARK  105  A    between atoms: _346  and  _349
REMARK  106  A    between atoms: _349  and  _350
REMARK  107  A    between atoms: _355  and  _356
REMARK  108  A    between atoms: _366  and  _367
REMARK  109  A    between atoms: _367  and  _368
REMARK  110  A    between atoms: _367  and  _370
REMARK  111  A    between atoms: _370  and  _371
REMARK  112  A    between atoms: _377  and  _378
REMARK  113  A    between atoms: _378  and  _379
REMARK  114  A    between atoms: _378  and  _381
REMARK  115  A    between atoms: _381  and  _382
REMARK  116  A    between atoms: _391  and  _392
REMARK  117  A    between atoms: _392  and  _393
REMARK  118  A    between atoms: _392  and  _395
REMARK  119  A    between atoms: _395  and  _396
REMARK  120  A    between atoms: _396  and  _397
REMARK  121  A    between atoms: _397  and  _398
REMARK  122  A    between atoms: _398  and  _399
REMARK  123  A    between atoms: _413  and  _414
REMARK  124  A    between atoms: _414  and  _415
REMARK  125  A    between atoms: _414  and  _417
REMARK  126  A    between atoms: _417  and  _418
REMARK  127  A    between atoms: _418  and  _419
REMARK  128  A    between atoms: _428  and  _429
REMARK  129  A    between atoms: _429  and  _430
REMARK  130  A    between atoms: _429  and  _432
REMARK  131  A    between atoms: _432  and  _433
REMARK  132  A    between atoms: _432  and  _434
REMARK  133  A    between atoms: _433  and  _435
REMARK  134  A    between atoms: _447  and  _448
REMARK  135  A    between atoms: _448  and  _449
REMARK  136  A    between atoms: _448  and  _451
REMARK  137  A    between atoms: _451  and  _452
REMARK  138  A    between atoms: _467  and  _468
REMARK  139  A    between atoms: _468  and  _469
REMARK  140  A    between atoms: _468  and  _471
REMARK  141  A    between atoms: _471  and  _472
REMARK  142  A    between atoms: _472  and  _473
REMARK  143  A    between atoms: _472  and  _474
REMARK  144  A    between atoms: _486  and  _487
REMARK  145  A    between atoms: _487  and  _488
REMARK  146  A    between atoms: _487  and  _490
REMARK  147  A    between atoms: _490  and  _491
REMARK  148  A    between atoms: _491  and  _492
REMARK  149  A    between atoms: _492  and  _493
REMARK  150  A    between atoms: _510  and  _511
REMARK  151  A    between atoms: _511  and  _512
REMARK  152  A    between atoms: _511  and  _514
REMARK  153  A    between atoms: _514  and  _515
REMARK  154  A    between atoms: _515  and  _516
REMARK  155  A    between atoms: _525  and  _526
REMARK  156  A    between atoms: _526  and  _527
REMARK  157  A    between atoms: _526  and  _529
REMARK  158  A    between atoms: _529  and  _530
REMARK  159  A    between atoms: _530  and  _531
REMARK  160  A    between atoms: _530  and  _532
REMARK  161  A    between atoms: _544  and  _545
REMARK  162  A    between atoms: _545  and  _546
REMARK  163  A    between atoms: _545  and  _548
REMARK  164  A    between atoms: _548  and  _549
REMARK  165  A    between atoms: _548  and  _550
REMARK  166  A    between atoms: _549  and  _551
REMARK  167  A    between atoms: _563  and  _564
REMARK  168  A    between atoms: _564  and  _565
REMARK  169  A    between atoms: _564  and  _567
REMARK  170  A    between atoms: _567  and  _568
REMARK  171  A    between atoms: _574  and  _575
REMARK  172  A    between atoms: _575  and  _576
REMARK  173  A    between atoms: _575  and  _578
REMARK  174  A    between atoms: _578  and  _579
REMARK  175  A    between atoms: _588  and  _589
REMARK  176  A    between atoms: _589  and  _590
REMARK  177  A    between atoms: _589  and  _592
REMARK  178  A    between atoms: _592  and  _593
REMARK  179  A    between atoms: _599  and  _600
REMARK  180  A    between atoms: _600  and  _601
REMARK  181  A    between atoms: _600  and  _603
REMARK  182  A    between atoms: _603  and  _604
REMARK  183  A    between atoms: _610  and  _611
REMARK  184  A    between atoms: _611  and  _612
REMARK  185  A    between atoms: _611  and  _614
REMARK  186  A    between atoms: _614  and  _615
REMARK  187  A    between atoms: _622  and  _623
REMARK  188  A    between atoms: _623  and  _624
REMARK  189  A    between atoms: _623  and  _626
REMARK  190  A    between atoms: _632  and  _633
REMARK  191  A    between atoms: _633  and  _634
REMARK  192  A    between atoms: _633  and  _636
REMARK  193  A    between atoms: _636  and  _637
REMARK  194  A    between atoms: _637  and  _638
REMARK  195  A    between atoms: _637  and  _639
REMARK  196  A    between atoms: _651  and  _652
REMARK  197  A    between atoms: _652  and  _653
REMARK  198  A    between atoms: _652  and  _655
REMARK  199  A    between atoms: _655  and  _656
REMARK  200  A    between atoms: _663  and  _664
REMARK  201  A    between atoms: _664  and  _665
REMARK  202  A    between atoms: _664  and  _667
REMARK  203  A    between atoms: _667  and  _668
REMARK  204  A    between atoms: _668  and  _669
REMARK  205  A    between atoms: _669  and  _670
REMARK  206  A    between atoms: _670  and  _671
REMARK  207  A    between atoms: _685  and  _686
REMARK  208  A    between atoms: _686  and  _687
REMARK  209  A    between atoms: _686  and  _689
REMARK  210  A    between atoms: _689  and  _690
REMARK  211  A    between atoms: _689  and  _691
REMARK  212  A    between atoms: _690  and  _692
REMARK  213  A    between atoms: _704  and  _705
REMARK  214  A    between atoms: _705  and  _706
REMARK  215  A    between atoms: _705  and  _708
REMARK  216  A    between atoms: _708  and  _709
REMARK  217  A    between atoms: _709  and  _710
REMARK  218  A    between atoms: _710  and  _711
REMARK  219  A    between atoms: _728  and  _729
REMARK  220  A    between atoms: _729  and  _730
REMARK  221  A    between atoms: _729  and  _732
REMARK  222  A    between atoms: _732  and  _733
REMARK  223  A    between atoms: _738  and  _739
REMARK  224  A    between atoms: _749  and  _750
REMARK  225  A    between atoms: _750  and  _751
REMARK  226  A    between atoms: _750  and  _753
REMARK  227  A    between atoms: _753  and  _754
REMARK  228  A    between atoms: _754  and  _755
REMARK  229  A    between atoms: _764  and  _765
REMARK  230  A    between atoms: _765  and  _766
REMARK  231  A    between atoms: _765  and  _768
REMARK  232  A    between atoms: _772  and  _773
REMARK  233  A    between atoms: _773  and  _774
REMARK  234  A    between atoms: _773  and  _776
REMARK  235  A    between atoms: _776  and  _777
REMARK  236  A    between atoms: _777  and  _778
REMARK  237  A    between atoms: _777  and  _779
REMARK  238  A    between atoms: _791  and  _792
REMARK  239  A    between atoms: _792  and  _793
REMARK  240  A    between atoms: _792  and  _795
REMARK  241  A    between atoms: _795  and  _796
REMARK  242  A    between atoms: _795  and  _797
REMARK  243  A    between atoms: _805  and  _806
REMARK  244  A    between atoms: _806  and  _807
REMARK  245  A    between atoms: _806  and  _809
REMARK  246  A    between atoms: _809  and  _810
REMARK  247  A    between atoms: _818  and  _819
REMARK  248  A    between atoms: _831  and  _832
REMARK  249  A    between atoms: _832  and  _833
REMARK  250  A    between atoms: _832  and  _835
REMARK  251  A    between atoms: _835  and  _836
REMARK  252  A    between atoms: _842  and  _843
REMARK  253  A    between atoms: _843  and  _844
REMARK  254  A    between atoms: _843  and  _846
REMARK  255  A    between atoms: _846  and  _847
REMARK  256  A    between atoms: _847  and  _848
REMARK  257  A    between atoms: _848  and  _849
REMARK  258  A    between atoms: _849  and  _850
REMARK  259  A    between atoms: _864  and  _865
REMARK  260  A    between atoms: _865  and  _866
REMARK  261  A    between atoms: _865  and  _868
REMARK  262  A    between atoms: _868  and  _869
REMARK  263  A    between atoms: _869  and  _870
REMARK  264  A    between atoms: _869  and  _871
REMARK  265  A    between atoms: _883  and  _884
REMARK  266  A    between atoms: _884  and  _885
REMARK  267  A    between atoms: _884  and  _887
REMARK  268  A    between atoms: _887  and  _888
REMARK  269  A    between atoms: _895  and  _896
REMARK  270  A    between atoms: _896  and  _897
REMARK  271  A    between atoms: _896  and  _899
REMARK  272  A    between atoms: _899  and  _900
REMARK  273  A    between atoms: _906  and  _907
REMARK  274  A    between atoms: _907  and  _908
REMARK  275  A    between atoms: _913  and  _914
REMARK  276  A    between atoms: _914  and  _915
REMARK  277  A    between atoms: _914  and  _917
REMARK  278  A    between atoms: _917  and  _918
REMARK  279  A    between atoms: _918  and  _919
REMARK  280  A    between atoms: _919  and  _920
REMARK  281  A    between atoms: _920  and  _921
REMARK  282  A    between atoms: _935  and  _936
REMARK  283  A    between atoms: _936  and  _937
REMARK  284  A    between atoms: _936  and  _939
REMARK  285  A    between atoms: _939  and  _940
REMARK  286  A    between atoms: _940  and  _941
REMARK  287  A    between atoms: _950  and  _951
REMARK  288  A    between atoms: _951  and  _952
REMARK  289  A    between atoms: _951  and  _954
REMARK  290  A    between atoms: _954  and  _955
REMARK  291  A    between atoms: _955  and  _956
REMARK  292  A    between atoms: _955  and  _957
REMARK  293  A    between atoms: _969  and  _970
REMARK  294  A    between atoms: _970  and  _971
REMARK  295  A    between atoms: _970  and  _973
REMARK  296  A    between atoms: _973  and  _974
REMARK  297  A    between atoms: _986  and  _987
REMARK  298  A    between atoms: _987  and  _988
REMARK  299  A    between atoms: _987  and  _990
REMARK  300  A    between atoms: _990  and  _991
REMARK  301  A    between atoms: _990  and  _992
REMARK  302  A    between atoms: _991  and  _993
REMARK  303  A    between atoms: _1005  and  _1006
REMARK  304  A    between atoms: _1006  and  _1007
REMARK  305  A    between atoms: _1006  and  _1009
REMARK  306  A    between atoms: _1009  and  _1010
REMARK  307  A    between atoms: _1019  and  _1020
REMARK  308  A    between atoms: _1020  and  _1021
REMARK  309  A    between atoms: _1020  and  _1023
REMARK  310  A    between atoms: _1023  and  _1024
REMARK  311  A    between atoms: _1024  and  _1025
REMARK  312  A    between atoms: _1024  and  _1026
REMARK  313  A    between atoms: _1038  and  _1039
REMARK  314  A    between atoms: _1039  and  _1040
REMARK  315  A    between atoms: _1039  and  _1042
REMARK  316  A    between atoms: _1042  and  _1043
REMARK  317  A    between atoms: _1042  and  _1044
REMARK  318  A    between atoms: _1043  and  _1045
REMARK  319  A    between atoms: _1058  and  _1059
REMARK  320  A    between atoms: _1071  and  _1072
REMARK  321  A    between atoms: _1072  and  _1073
REMARK  322  A    between atoms: _1072  and  _1075
REMARK  323  A    between atoms: _1075  and  _1076
REMARK  324  A    between atoms: _1085  and  _1086
REMARK  325  A    between atoms: _1086  and  _1087
REMARK  326  A    between atoms: _1086  and  _1089
REMARK  327  A    between atoms: _1089  and  _1090
REMARK  328  A    between atoms: _1090  and  _1091
REMARK  329  A    between atoms: _1091  and  _1092
REMARK  330  A    between atoms: _1092  and  _1093
REMARK  331  A    between atoms: _1107  and  _1108
REMARK  332  A    between atoms: _1108  and  _1109
REMARK  333  A    between atoms: _1108  and  _1111
REMARK  334  A    between atoms: _1111  and  _1112
REMARK  335  A    between atoms: _1112  and  _1113
REMARK  336  A    between atoms: _1124  and  _1125
REMARK  337  A    between atoms: _1125  and  _1126
REMARK  338  A    between atoms: _1125  and  _1128
REMARK  339  A    between atoms: _1128  and  _1129
REMARK  340  A    between atoms: _1136  and  _1137
REMARK  341  A    between atoms: _1137  and  _1138
REMARK  342  A    between atoms: _1137  and  _1140
REMARK  343  A    between atoms: _1140  and  _1141
REMARK  344  A    between atoms: _1141  and  _1142
REMARK  345  A    between atoms: _1142  and  _1143
REMARK  346  A    between atoms: _1160  and  _1161
REMARK  347  A    between atoms: _1161  and  _1162
REMARK  348  A    between atoms: _1161  and  _1164
REMARK  349  A    between atoms: _1164  and  _1165
REMARK  350  A    between atoms: _1164  and  _1166
REMARK  351  A    between atoms: _1174  and  _1175
REMARK  352  A    between atoms: _1175  and  _1176
REMARK  353  A    between atoms: _1175  and  _1178
REMARK  354  A    between atoms: _1178  and  _1179
REMARK  355  A    between atoms: _1179  and  _1180
REMARK  356  A    between atoms: _1179  and  _1181
REMARK  357  A    between atoms: _1193  and  _1194
REMARK  358  A    between atoms: _1194  and  _1195
REMARK  359  A    between atoms: _1194  and  _1197
REMARK  360  A    between atoms: _1197  and  _1198
REMARK  361  A    between atoms: _1197  and  _1199
REMARK  362  A    between atoms: _1207  and  _1208
REMARK  363  A    between atoms: _1208  and  _1209
REMARK  364  A    between atoms: _1208  and  _1211
REMARK  365  A    between atoms: _1211  and  _1212
REMARK  366  A    between atoms: _1211  and  _1213
REMARK  367  A    between atoms: _1212  and  _1214
REMARK  368  A    between atoms: _1226  and  _1227
REMARK  369  A    between atoms: _1227  and  _1228
REMARK  370  A    between atoms: _1227  and  _1230
REMARK  371  A    between atoms: _1230  and  _1231
REMARK  372  A    between atoms: _1230  and  _1232
REMARK  373  A    between atoms: _1242  and  _1243
REMARK  374  A    between atoms: _1243  and  _1244
REMARK  375  A    between atoms: _1243  and  _1246
REMARK  376  A    between atoms: _1246  and  _1247
REMARK  377  A    between atoms: _1254  and  _1255
REMARK  378  A    between atoms: _1255  and  _1256
REMARK  379  A    between atoms: _1255  and  _1258
REMARK  380  A    between atoms: _1258  and  _1259
REMARK  381  A    between atoms: _1258  and  _1260
REMARK  382  A    between atoms: _1268  and  _1269
REMARK  383  A    between atoms: _1269  and  _1270
REMARK  384  A    between atoms: _1275  and  _1276
REMARK  385  A    between atoms: _1276  and  _1277
REMARK  386  A    between atoms: _1276  and  _1279
REMARK  387  A    between atoms: _1279  and  _1280
REMARK  388  A    between atoms: _1279  and  _1281
REMARK  389  A    between atoms: _1280  and  _1282
REMARK  390  A    between atoms: _1294  and  _1295
REMARK  391  A    between atoms: _1295  and  _1296
REMARK  392  A    between atoms: _1301  and  _1302
REMARK  393  A    between atoms: _1302  and  _1303
REMARK  394  A    between atoms: _1302  and  _1305
REMARK  395  A    between atoms: _1305  and  _1306
REMARK  396  A    between atoms: _1306  and  _1307
REMARK  397  A    between atoms: _1307  and  _1308
REMARK  398  A    between atoms: _1318  and  _1319
REMARK  399  A    between atoms: _1319  and  _1320
REMARK  400  A    between atoms: _1319  and  _1322
REMARK  401  A    between atoms: _1322  and  _1323
REMARK  402  A    between atoms: _1322  and  _1324
REMARK  403  A    between atoms: _1332  and  _1333
REMARK  404  A    between atoms: _1333  and  _1334
REMARK  405  A    between atoms: _1333  and  _1336
REMARK  406  A    between atoms: _1336  and  _1337
REMARK  407  A    between atoms: _1337  and  _1338
REMARK  408  A    between atoms: _1338  and  _1339
REMARK  409  A    between atoms: _1339  and  _1340
REMARK  410  A    between atoms: _1354  and  _1355
REMARK  411  A    between atoms: _1355  and  _1356
REMARK  412  A    between atoms: _1355  and  _1358
REMARK  413  A    between atoms: _1364  and  _1365
REMARK  414  A    between atoms: _1365  and  _1366
REMARK  415  A    between atoms: _1365  and  _1368
REMARK  416  A    between atoms: _1368  and  _1369
REMARK  417  A    between atoms: _1376  and  _1377
REMARK  418  A    between atoms: _1377  and  _1378
REMARK  419  A    between atoms: _1377  and  _1380
REMARK  420  A    between atoms: _1380  and  _1381
REMARK  421  A    between atoms: _1381  and  _1382
REMARK  422  A    between atoms: _1381  and  _1383
REMARK  423  A    between atoms: _1395  and  _1396
REMARK  424  A    between atoms: _1396  and  _1399
REMARK  425  A    between atoms: _1399  and  _1400
REMARK  426  A    between atoms: _1399  and  _1401
REMARK  427  A    between atoms: _1400  and  _1402
REMARK  428  A    between atoms: _1422  and  _1425
REMARK  429  A    between atoms: _1424  and  _1428
REMARK  430  A    between atoms: _1425  and  _1427
REMARK  431  A    between atoms: _1443  and  _1444
REMARK  432  A    between atoms: _1443  and  _1446
REMARK  433  A    between atoms: _1446  and  _1447
REMARK  434  A    between atoms: _1457  and  _1458
REMARK  435  A    between atoms: _1458  and  _1459
REMARK  436  A    between atoms: _1458  and  _1461
REMARK  437  A    between atoms: _1461  and  _1462
REMARK  438  A    between atoms: _1462  and  _1463
REMARK  439  A    between atoms: _1462  and  _1464
REMARK  440  A    between atoms: _1476  and  _1477
REMARK  441  A    between atoms: _1477  and  _1478
REMARK  442  A    between atoms: _1483  and  _1484
REMARK  443  A    between atoms: _1484  and  _1485
REMARK  444  A    between atoms: _1484  and  _1487
REMARK  445  A    between atoms: _1487  and  _1488
REMARK  446  A    between atoms: _1487  and  _1489
REMARK  447  A    between atoms: _1497  and  _1498
REMARK  448  A    between atoms: _1498  and  _1499
REMARK  449  A    between atoms: _1498  and  _1501
REMARK  450  A    between atoms: _1501  and  _1502
REMARK  451  A    between atoms: _1501  and  _1503
REMARK  452  A    between atoms: _1502  and  _1504
REMARK  453  A    between atoms: _1516  and  _1517
REMARK  454  A    between atoms: _1517  and  _1518
REMARK  455  A    between atoms: _1517  and  _1520
REMARK  456  A    between atoms: _1526  and  _1527
REMARK  457  A    between atoms: _1527  and  _1528
REMARK  458  A    between atoms: _1527  and  _1530
REMARK  459  A    between atoms: _1530  and  _1531
REMARK  460  A    between atoms: _1531  and  _1532
REMARK  461  A    between atoms: _1532  and  _1533
REMARK  462  A    between atoms: _1533  and  _1534
REMARK  463  A    between atoms: _1548  and  _1549
REMARK  464  A    between atoms: _1549  and  _1550
REMARK  465  A    between atoms: _1549  and  _1552
REMARK  466  A    between atoms: _1552  and  _1553
REMARK  467  A    between atoms: _1559  and  _1560
REMARK  468  A    between atoms: _1560  and  _1561
REMARK  469  A    between atoms: _1566  and  _1567
REMARK  470  A    between atoms: _1567  and  _1568
REMARK  471  A    between atoms: _1567  and  _1570
REMARK  472  A    between atoms: _1570  and  _1571
REMARK  473  A    between atoms: _1570  and  _1572
REMARK  474  A    between atoms: _1580  and  _1581
REMARK  475  A    between atoms: _1581  and  _1582
REMARK  476  A    between atoms: _1581  and  _1584
REMARK  477  A    between atoms: _1584  and  _1585
REMARK  478  A    between atoms: _1585  and  _1586
REMARK  479  A    between atoms: _1586  and  _1587
REMARK  480  A    between atoms: _1587  and  _1588
REMARK  481  A    between atoms: _1602  and  _1603
REMARK  482  A    between atoms: _1603  and  _1604
REMARK  483  A    between atoms: _1603  and  _1606
REMARK  484  A    between atoms: _1612  and  _1613
REMARK  485  A    between atoms: _1613  and  _1614
REMARK  486  A    between atoms: _1613  and  _1616
REMARK  487  A    between atoms: _1616  and  _1617
REMARK  488  A    between atoms: _1632  and  _1633
REMARK  489  A    between atoms: _1633  and  _1634
REMARK  490  A    between atoms: _1633  and  _1636
REMARK  491  A    between atoms: _1636  and  _1637
REMARK  492  A    between atoms: _1637  and  _1638
REMARK  493  A    between atoms: _1638  and  _1639
REMARK  494  A    between atoms: _1649  and  _1650
REMARK  495  A    between atoms: _1650  and  _1651
REMARK  496  A    between atoms: _1650  and  _1653
REMARK  497  A    between atoms: _1653  and  _1654
REMARK  498  A    between atoms: _1654  and  _1655
REMARK  499  A    between atoms: _1664  and  _1665
REMARK  500  A    between atoms: _1665  and  _1666
REMARK  501  A    between atoms: _1665  and  _1668
REMARK  502  A    between atoms: _1674  and  _1675
REMARK  503  A    between atoms: _1675  and  _1676
REMARK  504  A    between atoms: _1675  and  _1678
REMARK  505  A    between atoms: _1678  and  _1679
REMARK  506  A    between atoms: _1679  and  _1680
REMARK  507  A    between atoms: _1679  and  _1681
REMARK  508  A    between atoms: _1693  and  _1694
REMARK  509  A    between atoms: _1694  and  _1695
REMARK  510  A    between atoms: _1694  and  _1697
REMARK  511  A    between atoms: _1697  and  _1698
REMARK  512  A    between atoms: _1698  and  _1699
REMARK  513  A    between atoms: _1710  and  _1711
REMARK  514  A    between atoms: _1711  and  _1712
REMARK  515  A    between atoms: _1711  and  _1714
REMARK  516  A    between atoms: _1720  and  _1721
REMARK  517  A    between atoms: _1721  and  _1722
REMARK  518  A    between atoms: _1727  and  _1728
REMARK  519  A    between atoms: _1728  and  _1729
REMARK  520  A    between atoms: _1728  and  _1731
REMARK  521  A    between atoms: _1737  and  _1738
REMARK  522  A    between atoms: _1738  and  _1739
REMARK  523  A    between atoms: _1738  and  _1741
REMARK  524  A    between atoms: _1741  and  _1742
REMARK  525  A    between atoms: _1749  and  _1750
REMARK  526  A    between atoms: _1750  and  _1751
REMARK  527  A    between atoms: _1750  and  _1753
REMARK  528  A    between atoms: _1753  and  _1754
REMARK  529  A    between atoms: _1753  and  _1755
REMARK  530  A    between atoms: _1754  and  _1756
REMARK  531  A    between atoms: _1768  and  _1769
REMARK  532  A    between atoms: _1769  and  _1772
REMARK  533  A    between atoms: _1772  and  _1773
REMARK  534  A    between atoms: _1791  and  _1793
REMARK  535  A    between atoms: _1792  and  _1794
REMARK  536  A    between atoms: _1814  and  _1815
REMARK  537  A    between atoms: _1814  and  _1817
REMARK  538  A    between atoms: _1817  and  _1818
REMARK  539  A    between atoms: _1817  and  _1819
REMARK  540  A    between atoms: _1818  and  _1820
REMARK  541  A    between atoms: _1833  and  _1834
REMARK  542  A    between atoms: _1834  and  _1835
REMARK  543  A    between atoms: _1840  and  _1841
REMARK  544  A    between atoms: _1841  and  _1842
REMARK  545  A    between atoms: _1841  and  _1844
REMARK  546  A    between atoms: _1844  and  _1845
REMARK  547  A    between atoms: _1845  and  _1846
REMARK  548  A    between atoms: _1857  and  _1858
REMARK  549  A    between atoms: _1858  and  _1859
REMARK  550  A    between atoms: _1858  and  _1861
REMARK  551  A    between atoms: _1861  and  _1862
REMARK  552  A    between atoms: _1877  and  _1878
REMARK  553  A    between atoms: _1878  and  _1879
REMARK  554  A    between atoms: _1884  and  _1885
REMARK  555  A    between atoms: _1885  and  _1886
REMARK  556  A    between atoms: _1885  and  _1888
REMARK  557  A    between atoms: _1888  and  _1889
REMARK  558  A    between atoms: _1888  and  _1890
REMARK  559  A    between atoms: _1900  and  _1901
REMARK  560  A    between atoms: _1901  and  _1902
REMARK  561  A    between atoms: _1907  and  _1908
REMARK  562  A    between atoms: _1908  and  _1909
REMARK  563  A    between atoms: _1908  and  _1911
REMARK  564  A    between atoms: _1911  and  _1912
REMARK  565  A    between atoms: _1927  and  _1928
REMARK  566  A    between atoms: _1928  and  _1929
REMARK  567  A    between atoms: _1928  and  _1931
REMARK  568  A    between atoms: _1931  and  _1932
REMARK  569  A    between atoms: _1937  and  _1938
REMARK  570  A    between atoms: _1948  and  _1949
REMARK  571  A    between atoms: _1949  and  _1950
REMARK  572  A    between atoms: _1949  and  _1952
REMARK  573  A    between atoms: _1952  and  _1953
REMARK  574  A    between atoms: _1959  and  _1960
REMARK  575  A    between atoms: _1960  and  _1961
REMARK  576  A    between atoms: _1960  and  _1963
REMARK  577  A    between atoms: _1969  and  _1970
REMARK  578  A    between atoms: _1970  and  _1971
REMARK  579  A    between atoms: _1970  and  _1973
REMARK  580  A    between atoms: _1973  and  _1974
REMARK  581  A    between atoms: _1979  and  _1980
REMARK  582  A    between atoms: _1990  and  _1991
REMARK  583  A    between atoms: _1991  and  _1992
REMARK  584  A    between atoms: _1991  and  _1994
REMARK  585  A    between atoms: _1994  and  _1995
REMARK  586  A    between atoms: _1995  and  _1996
REMARK  587  A    between atoms: _1995  and  _1997
REMARK  588  A    between atoms: _2009  and  _2010
REMARK  589  A    between atoms: _2010  and  _2011
REMARK  590  A    between atoms: _2010  and  _2013
REMARK  591  A    between atoms: _2013  and  _2014
REMARK  592  A    between atoms: _2013  and  _2015
REMARK  593  A    between atoms: _2025  and  _2026
REMARK  594  A    between atoms: _2026  and  _2027
REMARK  595  A    between atoms: _2026  and  _2029
REMARK  596  A    between atoms: _2035  and  _2036
REMARK  597  A    between atoms: _2036  and  _2037
REMARK  598  A    between atoms: _2036  and  _2039
REMARK  599  A    between atoms: _2039  and  _2040
REMARK  600  A    between atoms: _2040  and  _2041
REMARK  601  A    between atoms: _2050  and  _2051
REMARK  602  A    between atoms: _2051  and  _2052
REMARK  603  A    between atoms: _2051  and  _2054
REMARK  604  A    between atoms: _2054  and  _2055
REMARK  605  A    between atoms: _2055  and  _2056
REMARK  606  A    between atoms: _2056  and  _2057
REMARK  607  A    between atoms: _2057  and  _2058
REMARK  608  A    between atoms: _2072  and  _2073
REMARK  609  A    between atoms: _2073  and  _2074
REMARK  610  A    between atoms: _2073  and  _2076
REMARK  611  A    between atoms: _2076  and  _2077
REMARK  612  A    between atoms: _2076  and  _2078
REMARK  613  A    between atoms: _2088  and  _2089
REMARK  614  A    between atoms: _2089  and  _2090
REMARK  615  A    between atoms: _2089  and  _2092
REMARK  616  A    between atoms: _2092  and  _2093
REMARK  617  A    between atoms: _2092  and  _2094
REMARK  618  A    between atoms: _2102  and  _2103
REMARK  619  A    between atoms: _2103  and  _2104
REMARK  620  A    between atoms: _2103  and  _2106
REMARK  621  A    between atoms: _2106  and  _2107
REMARK  622  A    between atoms: _2106  and  _2108
REMARK  623  A    between atoms: _2118  and  _2119
REMARK  624  A    between atoms: _2119  and  _2120
REMARK  625  A    between atoms: _2119  and  _2122
REMARK  626  A    between atoms: _2122  and  _2123
REMARK  627  A    between atoms: _2122  and  _2124
REMARK  628  A    between atoms: _2123  and  _2125
REMARK  629  A    between atoms: _2137  and  _2138
REMARK  630  A    between atoms: _2138  and  _2139
REMARK  631  A    between atoms: _2138  and  _2141
REMARK  632  A    between atoms: _2141  and  _2142
REMARK  633  A    between atoms: _2141  and  _2143
REMARK  634  A    between atoms: _2151  and  _2152
REMARK  635  A    between atoms: _2152  and  _2153
REMARK  636  A    between atoms: _2152  and  _2155
REMARK  637  A    between atoms: _2155  and  _2156
REMARK  638  A    between atoms: _2156  and  _2157
REMARK  639  A    between atoms: _2157  and  _2158
REMARK  640  A    between atoms: _2158  and  _2159
REMARK  641  A    between atoms: _2173  and  _2174
REMARK  642  A    between atoms: _2174  and  _2175
REMARK  643  A    between atoms: _2174  and  _2177
REMARK  644  A    between atoms: _2177  and  _2178
REMARK  645  A    between atoms: _2190  and  _2191
REMARK  646  A    between atoms: _2191  and  _2192
REMARK  647  A    between atoms: _2191  and  _2194
REMARK  648  A    between atoms: _2194  and  _2195
REMARK  649  A    between atoms: _2204  and  _2205
REMARK  650  A    between atoms: _2205  and  _2206
REMARK  651  A    between atoms: _2205  and  _2208
REMARK  652  A    between atoms: _2208  and  _2209
REMARK  653  A    between atoms: _2216  and  _2217
REMARK  654  A    between atoms: _2217  and  _2218
REMARK  655  A    between atoms: _2217  and  _2220
REMARK  656  A    between atoms: _2220  and  _2221
REMARK  657  A    between atoms: _2228  and  _2229
REMARK  658  A    between atoms: _2229  and  _2230
REMARK  659  A    between atoms: _2229  and  _2232
REMARK  660  A    between atoms: _2232  and  _2233
REMARK  661  A    between atoms: _2233  and  _2234
REMARK  662  A    between atoms: _2243  and  _2244
REMARK  663  A    between atoms: _2244  and  _2245
REMARK  664  A    between atoms: _2244  and  _2247
REMARK  665  A    between atoms: _2247  and  _2248
REMARK  666  A    between atoms: _2248  and  _2249
REMARK  667  A    between atoms: _2260  and  _2261
REMARK  668  A    between atoms: _2261  and  _2262
REMARK  669  A    between atoms: _2261  and  _2264
REMARK  670  A    between atoms: _2264  and  _2265
REMARK  671  A    between atoms: _2270  and  _2271
REMARK  672  A    between atoms: _2281  and  _2282
REMARK  673  A    between atoms: _2282  and  _2283
REMARK  674  A    between atoms: _2282  and  _2285
REMARK  675  A    between atoms: _2291  and  _2292
REMARK  676  A    between atoms: _2292  and  _2293
REMARK  677  A    between atoms: _2292  and  _2295
REMARK  678  A    between atoms: _2295  and  _2296
REMARK  679  A    between atoms: _2315  and  _2316
REMARK  680  A    between atoms: _2316  and  _2317
REMARK  681  A    between atoms: _2316  and  _2319
REMARK  682  A    between atoms: _2319  and  _2320
REMARK  683  A    between atoms: _2320  and  _2321
REMARK  684  A    between atoms: _2330  and  _2331
REMARK  685  A    between atoms: _2331  and  _2332
REMARK  686  A    between atoms: _2331  and  _2334
REMARK  687  A    between atoms: _2334  and  _2335
REMARK  688  A    between atoms: _2341  and  _2342
REMARK  689  A    between atoms: _2342  and  _2343
REMARK  690  A    between atoms: _2342  and  _2345
REMARK  691  A    between atoms: _2345  and  _2346
REMARK  692  A    between atoms: _2352  and  _2353
REMARK  693  A    between atoms: _2353  and  _2354
REMARK  694  A    between atoms: _2353  and  _2356
REMARK  695  A    between atoms: _2362  and  _2363
REMARK  696  A    between atoms: _2363  and  _2364
REMARK  697  A    between atoms: _2369  and  _2370
REMARK  698  A    between atoms: _2370  and  _2371
REMARK  699  A    between atoms: _2376  and  _2377
REMARK  700  A    between atoms: _2377  and  _2378
REMARK  701  A    between atoms: _2377  and  _2380
REMARK  702  A    between atoms: _2380  and  _2381
REMARK  703  A    between atoms: _2387  and  _2388
REMARK  704  A    between atoms: _2388  and  _2389
REMARK  705  A    between atoms: _2388  and  _2391
REMARK  706  A    between atoms: _2391  and  _2392
REMARK  707  A    between atoms: _2407  and  _2408
REMARK  708  A    between atoms: _2408  and  _2409
REMARK  709  A    between atoms: _2408  and  _2411
REMARK  710  A    between atoms: _2411  and  _2412
REMARK  711  A    between atoms: _2411  and  _2413
REMARK  712  A    between atoms: _2421  and  _2422
REMARK  713  A    between atoms: _2422  and  _2423
REMARK  714  A    between atoms: _2422  and  _2425
REMARK  715  A    between atoms: _2425  and  _2426
REMARK  716  A    between atoms: _2425  and  _2427
REMARK  717  A    between atoms: _2437  and  _2438
REMARK  718  A    between atoms: _2438  and  _2439
REMARK  719  A    between atoms: _2438  and  _2441
REMARK  720  A    between atoms: _2441  and  _2442
REMARK  721  A    between atoms: _2442  and  _2443
REMARK  722  A    between atoms: _2443  and  _2444
REMARK  723  A    between atoms: _2461  and  _2462
REMARK  724  A    between atoms: _2462  and  _2463
REMARK  725  A    between atoms: _2462  and  _2465
REMARK  726  A    between atoms: _2465  and  _2466
REMARK  727  A    between atoms: _2465  and  _2467
REMARK  728  A    between atoms: _2475  and  _2476
REMARK  729  A    between atoms: _2476  and  _2477
REMARK  730  A    between atoms: _2476  and  _2479
REMARK  731  A    between atoms: _2479  and  _2480
REMARK  732  A    between atoms: _2487  and  _2488
REMARK  733  A    between atoms: _2488  and  _2489
REMARK  734  A    between atoms: _2488  and  _2491
REMARK  735  A    between atoms: _2491  and  _2492
REMARK  736  A    between atoms: _2491  and  _2493
REMARK  737  A    between atoms: _2501  and  _2502
REMARK  738  A    between atoms: _2502  and  _2503
REMARK  739  A    between atoms: _2508  and  _2509
REMARK  740  A    between atoms: _2509  and  _2510
REMARK  741  A    between atoms: _2509  and  _2512
REMARK  742  A    between atoms: _2512  and  _2513
REMARK  743  A    between atoms: _2513  and  _2514
REMARK  744  A    between atoms: _2524  and  _2525
REMARK  745  A    between atoms: _2537  and  _2538
REMARK  746  A    between atoms: _2538  and  _2539
REMARK  747  A    between atoms: _2538  and  _2541
REMARK  748  A    between atoms: _2541  and  _2542
REMARK  749  A    between atoms: _2542  and  _2543
REMARK  750  A    between atoms: _2543  and  _2544
REMARK  751  A    between atoms: _2554  and  _2555
REMARK  752  A    between atoms: _2555  and  _2556
REMARK  753  A    between atoms: _2561  and  _2562
REMARK  754  A    between atoms: _2562  and  _2563
REMARK  755  A    between atoms: _2562  and  _2565
REMARK  756  A    between atoms: _2565  and  _2566
REMARK  757  A    between atoms: _2566  and  _2567
REMARK  758  A    between atoms: _2567  and  _2568
REMARK  759  A    between atoms: _2585  and  _2586
REMARK  760  A    between atoms: _2586  and  _2587
REMARK  761  A    between atoms: _2592  and  _2593
REMARK  762  A    between atoms: _2593  and  _2594
REMARK  763  A    between atoms: _2593  and  _2596
REMARK  764  A    between atoms: _2596  and  _2597
REMARK  765  A    between atoms: _2596  and  _2598
REMARK  766  A    between atoms: _2606  and  _2607
REMARK  767  A    between atoms: _2607  and  _2608
REMARK  768  A    between atoms: _2607  and  _2610
REMARK  769  A    between atoms: _2610  and  _2611
REMARK  770  A    between atoms: _2611  and  _2612
REMARK  771  A    between atoms: _2612  and  _2613
REMARK  772  A    between atoms: _2613  and  _2614
REMARK  773  A    between atoms: _2628  and  _2629
REMARK  774  A    between atoms: _2629  and  _2630
REMARK  775  A    between atoms: _2629  and  _2632
REMARK  776  A    between atoms: _2632  and  _2633
REMARK  777  A    between atoms: _2632  and  _2634
REMARK  778  A    between atoms: _2644  and  _2645
REMARK  779  A    between atoms: _2645  and  _2646
REMARK  780  A    between atoms: _2645  and  _2648
REMARK  781  A    between atoms: _2648  and  _2649
REMARK  782  A    between atoms: _2648  and  _2650
REMARK  783  A    between atoms: _2649  and  _2651
REMARK  784  A    between atoms: _2663  and  _2664
REMARK  785  A    between atoms: _2664  and  _2665
REMARK  786  A    between atoms: _2664  and  _2667
REMARK  787  A    between atoms: _2667  and  _2668
REMARK  788  A    between atoms: _2668  and  _2669
REMARK  789  A    between atoms: _2668  and  _2670
REMARK  790  A    between atoms: _2682  and  _2683
REMARK  791  A    between atoms: _2683  and  _2684
REMARK  792  A    between atoms: _2683  and  _2686
REMARK  793  A    between atoms: _2686  and  _2687
REMARK  794  A    between atoms: _2699  and  _2700
REMARK  795  A    between atoms: _2700  and  _2701
REMARK  796  A    between atoms: _2700  and  _2703
REMARK  797  A    between atoms: _2703  and  _2704
REMARK  798  A    between atoms: _2704  and  _2705
REMARK  799  A    between atoms: _2704  and  _2706
REMARK  800  A    between atoms: _2718  and  _2719
REMARK  801  A    between atoms: _2719  and  _2720
REMARK  802  A    between atoms: _2719  and  _2722
REMARK  803  A    between atoms: _2722  and  _2723
REMARK  804  A    between atoms: _2723  and  _2724
REMARK  805  A    between atoms: _2724  and  _2725
REMARK  806  A    between atoms: _2725  and  _2726
REMARK  807  A    between atoms: _2740  and  _2741
REMARK  808  A    between atoms: _2741  and  _2742
REMARK  809  A    between atoms: _2741  and  _2744
REMARK  810  A    between atoms: _2744  and  _2745
REMARK  811  A    between atoms: _2745  and  _2746
REMARK  812  A    between atoms: _2755  and  _2756
REMARK  813  A    between atoms: _2756  and  _2757
REMARK  814  A    between atoms: _2756  and  _2759
REMARK  815  A    between atoms: _2759  and  _2760
REMARK  816  A    between atoms: _2767  and  _2768
REMARK  817  A    between atoms: _2768  and  _2769
REMARK  818  A    between atoms: _2768  and  _2771
REMARK  819  A    between atoms: _2771  and  _2772
REMARK  820  A    between atoms: _2772  and  _2773
REMARK  821  A    between atoms: _2784  and  _2785
REMARK  822  A    between atoms: _2785  and  _2786
REMARK  823  A    between atoms: _2785  and  _2788
REMARK  824  A    between atoms: _2788  and  _2789
REMARK  825  A    between atoms: _2788  and  _2790
REMARK  826  A    between atoms: _2798  and  _2799
REMARK  827  A    between atoms: _2799  and  _2800
REMARK  828  A    between atoms: _2799  and  _2802
REMARK  829  A    between atoms: _2802  and  _2803
REMARK  830  A    between atoms: _2803  and  _2804
REMARK  831  A    between atoms: _2813  and  _2814
REMARK  832  A    between atoms: _2814  and  _2815
REMARK  833  A    between atoms: _2814  and  _2817
REMARK  834  A    between atoms: _2817  and  _2818
REMARK  835  A    between atoms: _2823  and  _2824
REMARK  836  A    between atoms: _2834  and  _2835
REMARK  837  A    between atoms: _2835  and  _2838
REMARK  838  A    between atoms: _2838  and  _2839
REMARK  839  A    between atoms: _2839  and  _2840
REMARK  840  A    between atoms: _2839  and  _2841
REMARK  841  A    between atoms: _2884  and  _2885
REMARK  842  A    between atoms: _2884  and  _2887
REMARK  843  A    between atoms: _2887  and  _2888
REMARK  844  A    between atoms: _2888  and  _2889
REMARK  845  A    between atoms: _2899  and  _2900
REMARK  846  A    between atoms: _2900  and  _2901
REMARK  847  A    between atoms: _2900  and  _2903
REMARK  848  A    between atoms: _2903  and  _2904
REMARK  849  A    between atoms: _2904  and  _2905
REMARK  850  A    between atoms: _2905  and  _2906
REMARK  851  A    between atoms: _2923  and  _2924
REMARK  852  A    between atoms: _2924  and  _2925
REMARK  853  A    between atoms: _2924  and  _2927
REMARK  854  A    between atoms: _2927  and  _2928
REMARK  855  A    between atoms: _2928  and  _2929
REMARK  856  A    between atoms: _2929  and  _2930
REMARK  857  A    between atoms: _2947  and  _2948
REMARK  858  A    between atoms: _2948  and  _2949
REMARK  859  A    between atoms: _2948  and  _2951
REMARK  860  A    between atoms: _2951  and  _2952
REMARK  861  A    between atoms: _2951  and  _2953
REMARK  862  A    between atoms: _2952  and  _2954
REMARK  863  A    between atoms: _2966  and  _2967
REMARK  864  A    between atoms: _2967  and  _2968
REMARK  865  A    between atoms: _2967  and  _2970
REMARK  866  A    between atoms: _2970  and  _2971
REMARK  867  A    between atoms: _2971  and  _2972
REMARK  868  A    between atoms: _2972  and  _2973
REMARK  869  A    between atoms: _2973  and  _2974
REMARK  870  A    between atoms: _2988  and  _2989
REMARK  871  A    between atoms: _2989  and  _2990
REMARK  872  A    between atoms: _2989  and  _2992
REMARK  873  A    between atoms: _2992  and  _2993
REMARK  874  A    between atoms: _2993  and  _2994
REMARK  875  A    between atoms: _3003  and  _3004
REMARK  876  A    between atoms: _3004  and  _3005
REMARK  877  A    between atoms: _3004  and  _3007
REMARK  878  A    between atoms: _3007  and  _3008
REMARK  879  A    between atoms: _3007  and  _3009
REMARK  880  A    between atoms: _3008  and  _3010
REMARK  881  A    between atoms: _3022  and  _3023
REMARK  882  A    between atoms: _3023  and  _3024
REMARK  883  A    between atoms: _3023  and  _3026
REMARK  884  A    between atoms: _3026  and  _3027
REMARK  885  A    between atoms: _3026  and  _3028
REMARK  886  A    between atoms: _3038  and  _3039
REMARK  887  A    between atoms: _3039  and  _3040
REMARK  888  A    between atoms: _3039  and  _3042
REMARK  889  A    between atoms: _3042  and  _3043
REMARK  890  A    between atoms: _3043  and  _3044
REMARK  891  A    between atoms: _3044  and  _3045
REMARK  892  A    between atoms: _3045  and  _3046
REMARK  893  A    between atoms: _3060  and  _3061
REMARK  894  A    between atoms: _3061  and  _3062
REMARK  895  A    between atoms: _3061  and  _3064
REMARK  896  A    between atoms: _3064  and  _3065
REMARK  897  A    between atoms: _3065  and  _3066
REMARK  898  A    between atoms: _3066  and  _3067
REMARK  899  A    between atoms: _3067  and  _3068
REMARK  900  A    between atoms: _3082  and  _3083
REMARK  901  A    between atoms: _3083  and  _3084
REMARK  902  A    between atoms: _3083  and  _3086
REMARK  903  A    between atoms: _3086  and  _3087
REMARK  904  A    between atoms: _3099  and  _3100
REMARK  905  A    between atoms: _3100  and  _3101
REMARK  906  A    between atoms: _3100  and  _3103
REMARK  907  A    between atoms: _3103  and  _3104
REMARK  908  A    between atoms: _3110  and  _3111
REMARK  909  A    between atoms: _3111  and  _3112
REMARK  910  A    between atoms: _3111  and  _3114
REMARK  911  A    between atoms: _3114  and  _3115
REMARK  912  A    between atoms: _3115  and  _3116
REMARK  913  A    between atoms: _3127  and  _3128
REMARK  914  A    between atoms: _3128  and  _3129
REMARK  915  A    between atoms: _3128  and  _3131
REMARK  916  A    between atoms: _3131  and  _3132
REMARK  917  A    between atoms: _3147  and  _3148
REMARK  918  A    between atoms: _3148  and  _3149
REMARK  919  A    between atoms: _3148  and  _3151
REMARK  920  A    between atoms: _3151  and  _3152
REMARK  921  A    between atoms: _3151  and  _3153
REMARK  922  A    between atoms: _3152  and  _3154
REMARK  923  A    between atoms: _3166  and  _3167
REMARK  924  A    between atoms: _3167  and  _3168
REMARK  925  A    between atoms: _3173  and  _3174
REMARK  926  A    between atoms: _3174  and  _3175
REMARK  927  A    between atoms: _3174  and  _3177
REMARK  928  A    between atoms: _3177  and  _3178
REMARK  929  A    between atoms: _3183  and  _3184
REMARK  930  A    between atoms: _3195  and  _3196
REMARK  931  A    between atoms: _3208  and  _3209
REMARK  932  A    between atoms: _3209  and  _3210
REMARK  933  A    between atoms: _3209  and  _3212
REMARK  934  A    between atoms: _3212  and  _3213
REMARK  935  A    between atoms: _3212  and  _3214
REMARK  936  A    between atoms: _3213  and  _3215
REMARK  937  A    between atoms: _3227  and  _3228
REMARK  938  A    between atoms: _3228  and  _3229
REMARK  939  A    between atoms: _3228  and  _3231
REMARK  940  A    between atoms: _3231  and  _3232
REMARK  941  A    between atoms: _3231  and  _3233
REMARK  942  A    between atoms: _3241  and  _3242
REMARK  943  A    between atoms: _3242  and  _3243
REMARK  944  A    between atoms: _3242  and  _3245
REMARK  945  A    between atoms: _3245  and  _3246
REMARK  946  A    between atoms: _3246  and  _3247
REMARK  947  A    between atoms: _3246  and  _3248
REMARK  948  A    between atoms: _3260  and  _3261
REMARK  949  A    between atoms: _3261  and  _3262
REMARK  950  A    between atoms: _3261  and  _3264
REMARK  951  A    between atoms: _3264  and  _3265
REMARK  952  A    between atoms: _3280  and  _3281
REMARK  953  A    between atoms: _3281  and  _3282
REMARK  954  A    between atoms: _3281  and  _3284
REMARK  955  A    between atoms: _3284  and  _3285
REMARK  956  A    between atoms: _3284  and  _3286
REMARK  957  A    between atoms: _3296  and  _3297
REMARK  958  A    between atoms: _3297  and  _3298
REMARK  959  A    between atoms: _3297  and  _3300
REMARK  960  A    between atoms: _3300  and  _3301
REMARK  961  A    between atoms: _3301  and  _3302
REMARK                            x       y       z     vdW  Elec       q    Type
REMARK                         _______ _______ _______ _____ _____    ______ ____
ROOT
ATOM      1  H   UNK     1      -7.463  18.778  42.526  0.00  0.00    +0.000 HD
ENDROOT
TORSDOF 0
REMARK  Name = /Users/mlugowska/PhD/ML_residence_time_prediction/protein_files/5J20_protein.pdb
REMARK  961 active torsions:
REMARK  status: ('A' for Active; 'I' for Inactive)
REMARK    1  A    between atoms: _2  and  _3
REMARK    2  A    between atoms: _2  and  _5
REMARK    3  A    between atoms: _10  and  _11
REMARK    4  A    between atoms: _11  and  _12
REMARK    5  A    between atoms: _11  and  _14
REMARK    6  A    between atoms: _14  and  _15
REMARK    7  A    between atoms: _14  and  _16
REMARK    8  A    between atoms: _26  and  _27
REMARK    9  A    between atoms: _27  and  _28
REMARK   10  A    between atoms: _27  and  _30
REMARK   11  A    between atoms: _30  and  _31
REMARK   12  A    between atoms: _31  and  _32
REMARK   13  A    between atoms: _41  and  _42
REMARK   14  A    between atoms: _42  and  _43
REMARK   15  A    between atoms: _42  and  _45
REMARK   16  A    between atoms: _45  and  _46
REMARK   17  A    between atoms: _45  and  _47
REMARK   18  A    between atoms: _55  and  _56
REMARK   19  A    between atoms: _56  and  _57
REMARK   20  A    between atoms: _56  and  _59
REMARK   21  A    between atoms: _59  and  _60
REMARK   22  A    between atoms: _75  and  _76
REMARK   23  A    between atoms: _76  and  _77
REMARK   24  A    between atoms: _76  and  _79
REMARK   25  A    between atoms: _85  and  _86
REMARK   26  A    between atoms: _86  and  _87
REMARK   27  A    between atoms: _86  and  _89
REMARK   28  A    between atoms: _89  and  _90
REMARK   29  A    between atoms: _105  and  _106
REMARK   30  A    between atoms: _106  and  _107
REMARK   31  A    between atoms: _106  and  _109
REMARK   32  A    between atoms: _109  and  _110
REMARK   33  A    between atoms: _110  and  _111
REMARK   34  A    between atoms: _122  and  _123
REMARK   35  A    between atoms: _123  and  _124
REMARK   36  A    between atoms: _123  and  _126
REMARK   37  A    between atoms: _132  and  _133
REMARK   38  A    between atoms: _133  and  _134
REMARK   39  A    between atoms: _133  and  _136
REMARK   40  A    between atoms: _136  and  _137
REMARK   41  A    between atoms: _137  and  _138
REMARK   42  A    between atoms: _147  and  _148
REMARK   43  A    between atoms: _148  and  _149
REMARK   44  A    between atoms: _148  and  _151
REMARK   45  A    between atoms: _151  and  _152
REMARK   46  A    between atoms: _151  and  _153
REMARK   47  A    between atoms: _152  and  _154
REMARK   48  A    between atoms: _166  and  _167
REMARK   49  A    between atoms: _167  and  _168
REMARK   50  A    between atoms: _167  and  _170
REMARK   51  A    between atoms: _176  and  _177
REMARK   52  A    between atoms: _177  and  _178
REMARK   53  A    between atoms: _177  and  _180
REMARK   54  A    between atoms: _180  and  _181
REMARK   55  A    between atoms: _181  and  _182
REMARK   56  A    between atoms: _193  and  _194
REMARK   57  A    between atoms: _194  and  _195
REMARK   58  A    between atoms: _194  and  _197
REMARK   59  A    between atoms: _197  and  _198
REMARK   60  A    between atoms: _198  and  _199
REMARK   61  A    between atoms: _198  and  _200
REMARK   62  A    between atoms: _212  and  _213
REMARK   63  A    between atoms: _213  and  _214
REMARK   64  A    between atoms: _213  and  _216
REMARK   65  A    between atoms: _216  and  _217
REMARK   66  A    between atoms: _217  and  _218
REMARK   67  A    between atoms: _218  and  _219
REMARK   68  A    between atoms: _229  and  _230
REMARK   69  A    between atoms: _230  and  _231
REMARK   70  A    between atoms: _230  and  _233
REMARK   71  A    between atoms: _233  and  _234
REMARK   72  A    between atoms: _240  and  _241
REMARK   73  A    between atoms: _241  and  _242
REMARK   74  A    between atoms: _241  and  _244
REMARK   75  A    between atoms: _244  and  _245
REMARK   76  A    between atoms: _245  and  _246
REMARK   77  A    between atoms: _245  and  _247
REMARK   78  A    between atoms: _259  and  _260
REMARK   79  A    between atoms: _260  and  _261
REMARK   80  A    between atoms: _260  and  _263
REMARK   81  A    between atoms: _263  and  _264
REMARK   82  A    between atoms: _263  and  _265
REMARK   83  A    between atoms: _264  and  _266
REMARK   84  A    between atoms: _278  and  _279
REMARK   85  A    between atoms: _279  and  _280
REMARK   86  A    between atoms: _279  and  _282
REMARK   87  A    between atoms: _282  and  _283
REMARK   88  A    between atoms: _282  and  _284
REMARK   89  A    between atoms: _283  and  _285
REMARK   90  A    between atoms: _297  and  _298
REMARK   91  A    between atoms: _298  and  _299
REMARK   92  A    between atoms: _298  and  _301
REMARK   93  A    between atoms: _301  and  _302
REMARK   94  A    between atoms: _311  and  _312
REMARK   95  A    between atoms: _312  and  _313
REMARK   96  A    between atoms: _312  and  _315
REMARK   97  A    between atoms: _315  and  _316
REMARK   98  A    between atoms: _315  and  _317
REMARK   99  A    between atoms: _325  and  _326
REMARK  100  A    between atoms: _326  and  _327
REMARK  101  A    between atoms: _326  and  _329
REMARK  102  A    between atoms: _329  and  _330
REMARK  103  A    between atoms: _345  and  _346
REMARK  104  A    between atoms: _346  and  _347
REMARK  105  A    between atoms: _346  and  _349
REMARK  106  A    between atoms: _349  and  _350
REMARK  107  A    between atoms: _355  and  _356
REMARK  108  A    between atoms: _366  and  _367
REMARK  109  A    between atoms: _367  and  _368
REMARK  110  A    between atoms: _367  and  _370
REMARK  111  A    between atoms: _370  and  _371
REMARK  112  A    between atoms: _377  and  _378
REMARK  113  A    between atoms: _378  and  _379
REMARK  114  A    between atoms: _378  and  _381
REMARK  115  A    between atoms: _381  and  _382
REMARK  116  A    between atoms: _391  and  _392
REMARK  117  A    between atoms: _392  and  _393
REMARK  118  A    between atoms: _392  and  _395
REMARK  119  A    between atoms: _395  and  _396
REMARK  120  A    between atoms: _396  and  _397
REMARK  121  A    between atoms: _397  and  _398
REMARK  122  A    between atoms: _398  and  _399
REMARK  123  A    between atoms: _413  and  _414
REMARK  124  A    between atoms: _414  and  _415
REMARK  125  A    between atoms: _414  and  _417
REMARK  126  A    between atoms: _417  and  _418
REMARK  127  A    between atoms: _418  and  _419
REMARK  128  A    between atoms: _428  and  _429
REMARK  129  A    between atoms: _429  and  _430
REMARK  130  A    between atoms: _429  and  _432
REMARK  131  A    between atoms: _432  and  _433
REMARK  132  A    between atoms: _432  and  _434
REMARK  133  A    between atoms: _433  and  _435
REMARK  134  A    between atoms: _447  and  _448
REMARK  135  A    between atoms: _448  and  _449
REMARK  136  A    between atoms: _448  and  _451
REMARK  137  A    between atoms: _451  and  _452
REMARK  138  A    between atoms: _467  and  _468
REMARK  139  A    between atoms: _468  and  _469
REMARK  140  A    between atoms: _468  and  _471
REMARK  141  A    between atoms: _471  and  _472
REMARK  142  A    between atoms: _472  and  _473
REMARK  143  A    between atoms: _472  and  _474
REMARK  144  A    between atoms: _486  and  _487
REMARK  145  A    between atoms: _487  and  _488
REMARK  146  A    between atoms: _487  and  _490
REMARK  147  A    between atoms: _490  and  _491
REMARK  148  A    between atoms: _491  and  _492
REMARK  149  A    between atoms: _492  and  _493
REMARK  150  A    between atoms: _510  and  _511
REMARK  151  A    between atoms: _511  and  _512
REMARK  152  A    between atoms: _511  and  _514
REMARK  153  A    between atoms: _514  and  _515
REMARK  154  A    between atoms: _515  and  _516
REMARK  155  A    between atoms: _525  and  _526
REMARK  156  A    between atoms: _526  and  _527
REMARK  157  A    between atoms: _526  and  _529
REMARK  158  A    between atoms: _529  and  _530
REMARK  159  A    between atoms: _530  and  _531
REMARK  160  A    between atoms: _530  and  _532
REMARK  161  A    between atoms: _544  and  _545
REMARK  162  A    between atoms: _545  and  _546
REMARK  163  A    between atoms: _545  and  _548
REMARK  164  A    between atoms: _548  and  _549
REMARK  165  A    between atoms: _548  and  _550
REMARK  166  A    between atoms: _549  and  _551
REMARK  167  A    between atoms: _563  and  _564
REMARK  168  A    between atoms: _564  and  _565
REMARK  169  A    between atoms: _564  and  _567
REMARK  170  A    between atoms: _567  and  _568
REMARK  171  A    between atoms: _574  and  _575
REMARK  172  A    between atoms: _575  and  _576
REMARK  173  A    between atoms: _575  and  _578
REMARK  174  A    between atoms: _578  and  _579
REMARK  175  A    between atoms: _588  and  _589
REMARK  176  A    between atoms: _589  and  _590
REMARK  177  A    between atoms: _589  and  _592
REMARK  178  A    between atoms: _592  and  _593
REMARK  179  A    between atoms: _599  and  _600
REMARK  180  A    between atoms: _600  and  _601
REMARK  181  A    between atoms: _600  and  _603
REMARK  182  A    between atoms: _603  and  _604
REMARK  183  A    between atoms: _610  and  _611
REMARK  184  A    between atoms: _611  and  _612
REMARK  185  A    between atoms: _611  and  _614
REMARK  186  A    between atoms: _614  and  _615
REMARK  187  A    between atoms: _622  and  _623
REMARK  188  A    between atoms: _623  and  _624
REMARK  189  A    between atoms: _623  and  _626
REMARK  190  A    between atoms: _632  and  _633
REMARK  191  A    between atoms: _633  and  _634
REMARK  192  A    between atoms: _633  and  _636
REMARK  193  A    between atoms: _636  and  _637
REMARK  194  A    between atoms: _637  and  _638
REMARK  195  A    between atoms: _637  and  _639
REMARK  196  A    between atoms: _651  and  _652
REMARK  197  A    between atoms: _652  and  _653
REMARK  198  A    between atoms: _652  and  _655
REMARK  199  A    between atoms: _655  and  _656
REMARK  200  A    between atoms: _663  and  _664
REMARK  201  A    between atoms: _664  and  _665
REMARK  202  A    between atoms: _664  and  _667
REMARK  203  A    between atoms: _667  and  _668
REMARK  204  A    between atoms: _668  and  _669
REMARK  205  A    between atoms: _669  and  _670
REMARK  206  A    between atoms: _670  and  _671
REMARK  207  A    between atoms: _685  and  _686
REMARK  208  A    between atoms: _686  and  _687
REMARK  209  A    between atoms: _686  and  _689
REMARK  210  A    between atoms: _689  and  _690
REMARK  211  A    between atoms: _689  and  _691
REMARK  212  A    between atoms: _690  and  _692
REMARK  213  A    between atoms: _704  and  _705
REMARK  214  A    between atoms: _705  and  _706
REMARK  215  A    between atoms: _705  and  _708
REMARK  216  A    between atoms: _708  and  _709
REMARK  217  A    between atoms: _709  and  _710
REMARK  218  A    between atoms: _710  and  _711
REMARK  219  A    between atoms: _728  and  _729
REMARK  220  A    between atoms: _729  and  _730
REMARK  221  A    between atoms: _729  and  _732
REMARK  222  A    between atoms: _732  and  _733
REMARK  223  A    between atoms: _738  and  _739
REMARK  224  A    between atoms: _749  and  _750
REMARK  225  A    between atoms: _750  and  _751
REMARK  226  A    between atoms: _750  and  _753
REMARK  227  A    between atoms: _753  and  _754
REMARK  228  A    between atoms: _754  and  _755
REMARK  229  A    between atoms: _764  and  _765
REMARK  230  A    between atoms: _765  and  _766
REMARK  231  A    between atoms: _765  and  _768
REMARK  232  A    between atoms: _772  and  _773
REMARK  233  A    between atoms: _773  and  _774
REMARK  234  A    between atoms: _773  and  _776
REMARK  235  A    between atoms: _776  and  _777
REMARK  236  A    between atoms: _777  and  _778
REMARK  237  A    between atoms: _777  and  _779
REMARK  238  A    between atoms: _791  and  _792
REMARK  239  A    between atoms: _792  and  _793
REMARK  240  A    between atoms: _792  and  _795
REMARK  241  A    between atoms: _795  and  _796
REMARK  242  A    between atoms: _795  and  _797
REMARK  243  A    between atoms: _805  and  _806
REMARK  244  A    between atoms: _806  and  _807
REMARK  245  A    between atoms: _806  and  _809
REMARK  246  A    between atoms: _809  and  _810
REMARK  247  A    between atoms: _818  and  _819
REMARK  248  A    between atoms: _831  and  _832
REMARK  249  A    between atoms: _832  and  _833
REMARK  250  A    between atoms: _832  and  _835
REMARK  251  A    between atoms: _835  and  _836
REMARK  252  A    between atoms: _842  and  _843
REMARK  253  A    between atoms: _843  and  _844
REMARK  254  A    between atoms: _843  and  _846
REMARK  255  A    between atoms: _846  and  _847
REMARK  256  A    between atoms: _847  and  _848
REMARK  257  A    between atoms: _848  and  _849
REMARK  258  A    between atoms: _849  and  _850
REMARK  259  A    between atoms: _864  and  _865
REMARK  260  A    between atoms: _865  and  _866
REMARK  261  A    between atoms: _865  and  _868
REMARK  262  A    between atoms: _868  and  _869
REMARK  263  A    between atoms: _869  and  _870
REMARK  264  A    between atoms: _869  and  _871
REMARK  265  A    between atoms: _883  and  _884
REMARK  266  A    between atoms: _884  and  _885
REMARK  267  A    between atoms: _884  and  _887
REMARK  268  A    between atoms: _887  and  _888
REMARK  269  A    between atoms: _895  and  _896
REMARK  270  A    between atoms: _896  and  _897
REMARK  271  A    between atoms: _896  and  _899
REMARK  272  A    between atoms: _899  and  _900
REMARK  273  A    between atoms: _906  and  _907
REMARK  274  A    between atoms: _907  and  _908
REMARK  275  A    between atoms: _913  and  _914
REMARK  276  A    between atoms: _914  and  _915
REMARK  277  A    between atoms: _914  and  _917
REMARK  278  A    between atoms: _917  and  _918
REMARK  279  A    between atoms: _918  and  _919
REMARK  280  A    between atoms: _919  and  _920
REMARK  281  A    between atoms: _920  and  _921
REMARK  282  A    between atoms: _935  and  _936
REMARK  283  A    between atoms: _936  and  _937
REMARK  284  A    between atoms: _936  and  _939
REMARK  285  A    between atoms: _939  and  _940
REMARK  286  A    between atoms: _940  and  _941
REMARK  287  A    between atoms: _950  and  _951
REMARK  288  A    between atoms: _951  and  _952
REMARK  289  A    between atoms: _951  and  _954
REMARK  290  A    between atoms: _954  and  _955
REMARK  291  A    between atoms: _955  and  _956
REMARK  292  A    between atoms: _955  and  _957
REMARK  293  A    between atoms: _969  and  _970
REMARK  294  A    between atoms: _970  and  _971
REMARK  295  A    between atoms: _970  and  _973
REMARK  296  A    between atoms: _973  and  _974
REMARK  297  A    between atoms: _986  and  _987
REMARK  298  A    between atoms: _987  and  _988
REMARK  299  A    between atoms: _987  and  _990
REMARK  300  A    between atoms: _990  and  _991
REMARK  301  A    between atoms: _990  and  _992
REMARK  302  A    between atoms: _991  and  _993
REMARK  303  A    between atoms: _1005  and  _1006
REMARK  304  A    between atoms: _1006  and  _1007
REMARK  305  A    between atoms: _1006  and  _1009
REMARK  306  A    between atoms: _1009  and  _1010
REMARK  307  A    between atoms: _1019  and  _1020
REMARK  308  A    between atoms: _1020  and  _1021
REMARK  309  A    between atoms: _1020  and  _1023
REMARK  310  A    between atoms: _1023  and  _1024
REMARK  311  A    between atoms: _1024  and  _1025
REMARK  312  A    between atoms: _1024  and  _1026
REMARK  313  A    between atoms: _1038  and  _1039
REMARK  314  A    between atoms: _1039  and  _1040
REMARK  315  A    between atoms: _1039  and  _1042
REMARK  316  A    between atoms: _1042  and  _1043
REMARK  317  A    between atoms: _1042  and  _1044
REMARK  318  A    between atoms: _1043  and  _1045
REMARK  319  A    between atoms: _1058  and  _1059
REMARK  320  A    between atoms: _1071  and  _1072
REMARK  321  A    between atoms: _1072  and  _1073
REMARK  322  A    between atoms: _1072  and  _1075
REMARK  323  A    between atoms: _1075  and  _1076
REMARK  324  A    between atoms: _1085  and  _1086
REMARK  325  A    between atoms: _1086  and  _1087
REMARK  326  A    between atoms: _1086  and  _1089
REMARK  327  A    between atoms: _1089  and  _1090
REMARK  328  A    between atoms: _1090  and  _1091
REMARK  329  A    between atoms: _1091  and  _1092
REMARK  330  A    between atoms: _1092  and  _1093
REMARK  331  A    between atoms: _1107  and  _1108
REMARK  332  A    between atoms: _1108  and  _1109
REMARK  333  A    between atoms: _1108  and  _1111
REMARK  334  A    between atoms: _1111  and  _1112
REMARK  335  A    between atoms: _1112  and  _1113
REMARK  336  A    between atoms: _1124  and  _1125
REMARK  337  A    between atoms: _1125  and  _1126
REMARK  338  A    between atoms: _1125  and  _1128
REMARK  339  A    between atoms: _1128  and  _1129
REMARK  340  A    between atoms: _1136  and  _1137
REMARK  341  A    between atoms: _1137  and  _1138
REMARK  342  A    between atoms: _1137  and  _1140
REMARK  343  A    between atoms: _1140  and  _1141
REMARK  344  A    between atoms: _1141  and  _1142
REMARK  345  A    between atoms: _1142  and  _1143
REMARK  346  A    between atoms: _1160  and  _1161
REMARK  347  A    between atoms: _1161  and  _1162
REMARK  348  A    between atoms: _1161  and  _1164
REMARK  349  A    between atoms: _1164  and  _1165
REMARK  350  A    between atoms: _1164  and  _1166
REMARK  351  A    between atoms: _1174  and  _1175
REMARK  352  A    between atoms: _1175  and  _1176
REMARK  353  A    between atoms: _1175  and  _1178
REMARK  354  A    between atoms: _1178  and  _1179
REMARK  355  A    between atoms: _1179  and  _1180
REMARK  356  A    between atoms: _1179  and  _1181
REMARK  357  A    between atoms: _1193  and  _1194
REMARK  358  A    between atoms: _1194  and  _1195
REMARK  359  A    between atoms: _1194  and  _1197
REMARK  360  A    between atoms: _1197  and  _1198
REMARK  361  A    between atoms: _1197  and  _1199
REMARK  362  A    between atoms: _1207  and  _1208
REMARK  363  A    between atoms: _1208  and  _1209
REMARK  364  A    between atoms: _1208  and  _1211
REMARK  365  A    between atoms: _1211  and  _1212
REMARK  366  A    between atoms: _1211  and  _1213
REMARK  367  A    between atoms: _1212  and  _1214
REMARK  368  A    between atoms: _1226  and  _1227
REMARK  369  A    between atoms: _1227  and  _1228
REMARK  370  A    between atoms: _1227  and  _1230
REMARK  371  A    between atoms: _1230  and  _1231
REMARK  372  A    between atoms: _1230  and  _1232
REMARK  373  A    between atoms: _1242  and  _1243
REMARK  374  A    between atoms: _1243  and  _1244
REMARK  375  A    between atoms: _1243  and  _1246
REMARK  376  A    between atoms: _1246  and  _1247
REMARK  377  A    between atoms: _1254  and  _1255
REMARK  378  A    between atoms: _1255  and  _1256
REMARK  379  A    between atoms: _1255  and  _1258
REMARK  380  A    between atoms: _1258  and  _1259
REMARK  381  A    between atoms: _1258  and  _1260
REMARK  382  A    between atoms: _1268  and  _1269
REMARK  383  A    between atoms: _1269  and  _1270
REMARK  384  A    between atoms: _1275  and  _1276
REMARK  385  A    between atoms: _1276  and  _1277
REMARK  386  A    between atoms: _1276  and  _1279
REMARK  387  A    between atoms: _1279  and  _1280
REMARK  388  A    between atoms: _1279  and  _1281
REMARK  389  A    between atoms: _1280  and  _1282
REMARK  390  A    between atoms: _1294  and  _1295
REMARK  391  A    between atoms: _1295  and  _1296
REMARK  392  A    between atoms: _1301  and  _1302
REMARK  393  A    between atoms: _1302  and  _1303
REMARK  394  A    between atoms: _1302  and  _1305
REMARK  395  A    between atoms: _1305  and  _1306
REMARK  396  A    between atoms: _1306  and  _1307
REMARK  397  A    between atoms: _1307  and  _1308
REMARK  398  A    between atoms: _1318  and  _1319
REMARK  399  A    between atoms: _1319  and  _1320
REMARK  400  A    between atoms: _1319  and  _1322
REMARK  401  A    between atoms: _1322  and  _1323
REMARK  402  A    between atoms: _1322  and  _1324
REMARK  403  A    between atoms: _1332  and  _1333
REMARK  404  A    between atoms: _1333  and  _1334
REMARK  405  A    between atoms: _1333  and  _1336
REMARK  406  A    between atoms: _1336  and  _1337
REMARK  407  A    between atoms: _1337  and  _1338
REMARK  408  A    between atoms: _1338  and  _1339
REMARK  409  A    between atoms: _1339  and  _1340
REMARK  410  A    between atoms: _1354  and  _1355
REMARK  411  A    between atoms: _1355  and  _1356
REMARK  412  A    between atoms: _1355  and  _1358
REMARK  413  A    between atoms: _1364  and  _1365
REMARK  414  A    between atoms: _1365  and  _1366
REMARK  415  A    between atoms: _1365  and  _1368
REMARK  416  A    between atoms: _1368  and  _1369
REMARK  417  A    between atoms: _1376  and  _1377
REMARK  418  A    between atoms: _1377  and  _1378
REMARK  419  A    between atoms: _1377  and  _1380
REMARK  420  A    between atoms: _1380  and  _1381
REMARK  421  A    between atoms: _1381  and  _1382
REMARK  422  A    between atoms: _1381  and  _1383
REMARK  423  A    between atoms: _1395  and  _1396
REMARK  424  A    between atoms: _1396  and  _1399
REMARK  425  A    between atoms: _1399  and  _1400
REMARK  426  A    between atoms: _1399  and  _1401
REMARK  427  A    between atoms: _1400  and  _1402
REMARK  428  A    between atoms: _1422  and  _1425
REMARK  429  A    between atoms: _1424  and  _1428
REMARK  430  A    between atoms: _1425  and  _1427
REMARK  431  A    between atoms: _1443  and  _1444
REMARK  432  A    between atoms: _1443  and  _1446
REMARK  433  A    between atoms: _1446  and  _1447
REMARK  434  A    between atoms: _1457  and  _1458
REMARK  435  A    between atoms: _1458  and  _1459
REMARK  436  A    between atoms: _1458  and  _1461
REMARK  437  A    between atoms: _1461  and  _1462
REMARK  438  A    between atoms: _1462  and  _1463
REMARK  439  A    between atoms: _1462  and  _1464
REMARK  440  A    between atoms: _1476  and  _1477
REMARK  441  A    between atoms: _1477  and  _1478
REMARK  442  A    between atoms: _1483  and  _1484
REMARK  443  A    between atoms: _1484  and  _1485
REMARK  444  A    between atoms: _1484  and  _1487
REMARK  445  A    between atoms: _1487  and  _1488
REMARK  446  A    between atoms: _1487  and  _1489
REMARK  447  A    between atoms: _1497  and  _1498
REMARK  448  A    between atoms: _1498  and  _1499
REMARK  449  A    between atoms: _1498  and  _1501
REMARK  450  A    between atoms: _1501  and  _1502
REMARK  451  A    between atoms: _1501  and  _1503
REMARK  452  A    between atoms: _1502  and  _1504
REMARK  453  A    between atoms: _1516  and  _1517
REMARK  454  A    between atoms: _1517  and  _1518
REMARK  455  A    between atoms: _1517  and  _1520
REMARK  456  A    between atoms: _1526  and  _1527
REMARK  457  A    between atoms: _1527  and  _1528
REMARK  458  A    between atoms: _1527  and  _1530
REMARK  459  A    between atoms: _1530  and  _1531
REMARK  460  A    between atoms: _1531  and  _1532
REMARK  461  A    between atoms: _1532  and  _1533
REMARK  462  A    between atoms: _1533  and  _1534
REMARK  463  A    between atoms: _1548  and  _1549
REMARK  464  A    between atoms: _1549  and  _1550
REMARK  465  A    between atoms: _1549  and  _1552
REMARK  466  A    between atoms: _1552  and  _1553
REMARK  467  A    between atoms: _1559  and  _1560
REMARK  468  A    between atoms: _1560  and  _1561
REMARK  469  A    between atoms: _1566  and  _1567
REMARK  470  A    between atoms: _1567  and  _1568
REMARK  471  A    between atoms: _1567  and  _1570
REMARK  472  A    between atoms: _1570  and  _1571
REMARK  473  A    between atoms: _1570  and  _1572
REMARK  474  A    between atoms: _1580  and  _1581
REMARK  475  A    between atoms: _1581  and  _1582
REMARK  476  A    between atoms: _1581  and  _1584
REMARK  477  A    between atoms: _1584  and  _1585
REMARK  478  A    between atoms: _1585  and  _1586
REMARK  479  A    between atoms: _1586  and  _1587
REMARK  480  A    between atoms: _1587  and  _1588
REMARK  481  A    between atoms: _1602  and  _1603
REMARK  482  A    between atoms: _1603  and  _1604
REMARK  483  A    between atoms: _1603  and  _1606
REMARK  484  A    between atoms: _1612  and  _1613
REMARK  485  A    between atoms: _1613  and  _1614
REMARK  486  A    between atoms: _1613  and  _1616
REMARK  487  A    between atoms: _1616  and  _1617
REMARK  488  A    between atoms: _1632  and  _1633
REMARK  489  A    between atoms: _1633  and  _1634
REMARK  490  A    between atoms: _1633  and  _1636
REMARK  491  A    between atoms: _1636  and  _1637
REMARK  492  A    between atoms: _1637  and  _1638
REMARK  493  A    between atoms: _1638  and  _1639
REMARK  494  A    between atoms: _1649  and  _1650
REMARK  495  A    between atoms: _1650  and  _1651
REMARK  496  A    between atoms: _1650  and  _1653
REMARK  497  A    between atoms: _1653  and  _1654
REMARK  498  A    between atoms: _1654  and  _1655
REMARK  499  A    between atoms: _1664  and  _1665
REMARK  500  A    between atoms: _1665  and  _1666
REMARK  501  A    between atoms: _1665  and  _1668
REMARK  502  A    between atoms: _1674  and  _1675
REMARK  503  A    between atoms: _1675  and  _1676
REMARK  504  A    between atoms: _1675  and  _1678
REMARK  505  A    between atoms: _1678  and  _1679
REMARK  506  A    between atoms: _1679  and  _1680
REMARK  507  A    between atoms: _1679  and  _1681
REMARK  508  A    between atoms: _1693  and  _1694
REMARK  509  A    between atoms: _1694  and  _1695
REMARK  510  A    between atoms: _1694  and  _1697
REMARK  511  A    between atoms: _1697  and  _1698
REMARK  512  A    between atoms: _1698  and  _1699
REMARK  513  A    between atoms: _1710  and  _1711
REMARK  514  A    between atoms: _1711  and  _1712
REMARK  515  A    between atoms: _1711  and  _1714
REMARK  516  A    between atoms: _1720  and  _1721
REMARK  517  A    between atoms: _1721  and  _1722
REMARK  518  A    between atoms: _1727  and  _1728
REMARK  519  A    between atoms: _1728  and  _1729
REMARK  520  A    between atoms: _1728  and  _1731
REMARK  521  A    between atoms: _1737  and  _1738
REMARK  522  A    between atoms: _1738  and  _1739
REMARK  523  A    between atoms: _1738  and  _1741
REMARK  524  A    between atoms: _1741  and  _1742
REMARK  525  A    between atoms: _1749  and  _1750
REMARK  526  A    between atoms: _1750  and  _1751
REMARK  527  A    between atoms: _1750  and  _1753
REMARK  528  A    between atoms: _1753  and  _1754
REMARK  529  A    between atoms: _1753  and  _1755
REMARK  530  A    between atoms: _1754  and  _1756
REMARK  531  A    between atoms: _1768  and  _1769
REMARK  532  A    between atoms: _1769  and  _1772
REMARK  533  A    between atoms: _1772  and  _1773
REMARK  534  A    between atoms: _1791  and  _1793
REMARK  535  A    between atoms: _1792  and  _1794
REMARK  536  A    between atoms: _1814  and  _1815
REMARK  537  A    between atoms: _1814  and  _1817
REMARK  538  A    between atoms: _1817  and  _1818
REMARK  539  A    between atoms: _1817  and  _1819
REMARK  540  A    between atoms: _1818  and  _1820
REMARK  541  A    between atoms: _1833  and  _1834
REMARK  542  A    between atoms: _1834  and  _1835
REMARK  543  A    between atoms: _1840  and  _1841
REMARK  544  A    between atoms: _1841  and  _1842
REMARK  545  A    between atoms: _1841  and  _1844
REMARK  546  A    between atoms: _1844  and  _1845
REMARK  547  A    between atoms: _1845  and  _1846
REMARK  548  A    between atoms: _1857  and  _1858
REMARK  549  A    between atoms: _1858  and  _1859
REMARK  550  A    between atoms: _1858  and  _1861
REMARK  551  A    between atoms: _1861  and  _1862
REMARK  552  A    between atoms: _1877  and  _1878
REMARK  553  A    between atoms: _1878  and  _1879
REMARK  554  A    between atoms: _1884  and  _1885
REMARK  555  A    between atoms: _1885  and  _1886
REMARK  556  A    between atoms: _1885  and  _1888
REMARK  557  A    between atoms: _1888  and  _1889
REMARK  558  A    between atoms: _1888  and  _1890
REMARK  559  A    between atoms: _1900  and  _1901
REMARK  560  A    between atoms: _1901  and  _1902
REMARK  561  A    between atoms: _1907  and  _1908
REMARK  562  A    between atoms: _1908  and  _1909
REMARK  563  A    between atoms: _1908  and  _1911
REMARK  564  A    between atoms: _1911  and  _1912
REMARK  565  A    between atoms: _1927  and  _1928
REMARK  566  A    between atoms: _1928  and  _1929
REMARK  567  A    between atoms: _1928  and  _1931
REMARK  568  A    between atoms: _1931  and  _1932
REMARK  569  A    between atoms: _1937  and  _1938
REMARK  570  A    between atoms: _1948  and  _1949
REMARK  571  A    between atoms: _1949  and  _1950
REMARK  572  A    between atoms: _1949  and  _1952
REMARK  573  A    between atoms: _1952  and  _1953
REMARK  574  A    between atoms: _1959  and  _1960
REMARK  575  A    between atoms: _1960  and  _1961
REMARK  576  A    between atoms: _1960  and  _1963
REMARK  577  A    between atoms: _1969  and  _1970
REMARK  578  A    between atoms: _1970  and  _1971
REMARK  579  A    between atoms: _1970  and  _1973
REMARK  580  A    between atoms: _1973  and  _1974
REMARK  581  A    between atoms: _1979  and  _1980
REMARK  582  A    between atoms: _1990  and  _1991
REMARK  583  A    between atoms: _1991  and  _1992
REMARK  584  A    between atoms: _1991  and  _1994
REMARK  585  A    between atoms: _1994  and  _1995
REMARK  586  A    between atoms: _1995  and  _1996
REMARK  587  A    between atoms: _1995  and  _1997
REMARK  588  A    between atoms: _2009  and  _2010
REMARK  589  A    between atoms: _2010  and  _2011
REMARK  590  A    between atoms: _2010  and  _2013
REMARK  591  A    between atoms: _2013  and  _2014
REMARK  592  A    between atoms: _2013  and  _2015
REMARK  593  A    between atoms: _2025  and  _2026
REMARK  594  A    between atoms: _2026  and  _2027
REMARK  595  A    between atoms: _2026  and  _2029
REMARK  596  A    between atoms: _2035  and  _2036
REMARK  597  A    between atoms: _2036  and  _2037
REMARK  598  A    between atoms: _2036  and  _2039
REMARK  599  A    between atoms: _2039  and  _2040
REMARK  600  A    between atoms: _2040  and  _2041
REMARK  601  A    between atoms: _2050  and  _2051
REMARK  602  A    between atoms: _2051  and  _2052
REMARK  603  A    between atoms: _2051  and  _2054
REMARK  604  A    between atoms: _2054  and  _2055
REMARK  605  A    between atoms: _2055  and  _2056
REMARK  606  A    between atoms: _2056  and  _2057
REMARK  607  A    between atoms: _2057  and  _2058
REMARK  608  A    between atoms: _2072  and  _2073
REMARK  609  A    between atoms: _2073  and  _2074
REMARK  610  A    between atoms: _2073  and  _2076
REMARK  611  A    between atoms: _2076  and  _2077
REMARK  612  A    between atoms: _2076  and  _2078
REMARK  613  A    between atoms: _2088  and  _2089
REMARK  614  A    between atoms: _2089  and  _2090
REMARK  615  A    between atoms: _2089  and  _2092
REMARK  616  A    between atoms: _2092  and  _2093
REMARK  617  A    between atoms: _2092  and  _2094
REMARK  618  A    between atoms: _2102  and  _2103
REMARK  619  A    between atoms: _2103  and  _2104
REMARK  620  A    between atoms: _2103  and  _2106
REMARK  621  A    between atoms: _2106  and  _2107
REMARK  622  A    between atoms: _2106  and  _2108
REMARK  623  A    between atoms: _2118  and  _2119
REMARK  624  A    between atoms: _2119  and  _2120
REMARK  625  A    between atoms: _2119  and  _2122
REMARK  626  A    between atoms: _2122  and  _2123
REMARK  627  A    between atoms: _2122  and  _2124
REMARK  628  A    between atoms: _2123  and  _2125
REMARK  629  A    between atoms: _2137  and  _2138
REMARK  630  A    between atoms: _2138  and  _2139
REMARK  631  A    between atoms: _2138  and  _2141
REMARK  632  A    between atoms: _2141  and  _2142
REMARK  633  A    between atoms: _2141  and  _2143
REMARK  634  A    between atoms: _2151  and  _2152
REMARK  635  A    between atoms: _2152  and  _2153
REMARK  636  A    between atoms: _2152  and  _2155
REMARK  637  A    between atoms: _2155  and  _2156
REMARK  638  A    between atoms: _2156  and  _2157
REMARK  639  A    between atoms: _2157  and  _2158
REMARK  640  A    between atoms: _2158  and  _2159
REMARK  641  A    between atoms: _2173  and  _2174
REMARK  642  A    between atoms: _2174  and  _2175
REMARK  643  A    between atoms: _2174  and  _2177
REMARK  644  A    between atoms: _2177  and  _2178
REMARK  645  A    between atoms: _2190  and  _2191
REMARK  646  A    between atoms: _2191  and  _2192
REMARK  647  A    between atoms: _2191  and  _2194
REMARK  648  A    between atoms: _2194  and  _2195
REMARK  649  A    between atoms: _2204  and  _2205
REMARK  650  A    between atoms: _2205  and  _2206
REMARK  651  A    between atoms: _2205  and  _2208
REMARK  652  A    between atoms: _2208  and  _2209
REMARK  653  A    between atoms: _2216  and  _2217
REMARK  654  A    between atoms: _2217  and  _2218
REMARK  655  A    between atoms: _2217  and  _2220
REMARK  656  A    between atoms: _2220  and  _2221
REMARK  657  A    between atoms: _2228  and  _2229
REMARK  658  A    between atoms: _2229  and  _2230
REMARK  659  A    between atoms: _2229  and  _2232
REMARK  660  A    between atoms: _2232  and  _2233
REMARK  661  A    between atoms: _2233  and  _2234
REMARK  662  A    between atoms: _2243  and  _2244
REMARK  663  A    between atoms: _2244  and  _2245
REMARK  664  A    between atoms: _2244  and  _2247
REMARK  665  A    between atoms: _2247  and  _2248
REMARK  666  A    between atoms: _2248  and  _2249
REMARK  667  A    between atoms: _2260  and  _2261
REMARK  668  A    between atoms: _2261  and  _2262
REMARK  669  A    between atoms: _2261  and  _2264
REMARK  670  A    between atoms: _2264  and  _2265
REMARK  671  A    between atoms: _2270  and  _2271
REMARK  672  A    between atoms: _2281  and  _2282
REMARK  673  A    between atoms: _2282  and  _2283
REMARK  674  A    between atoms: _2282  and  _2285
REMARK  675  A    between atoms: _2291  and  _2292
REMARK  676  A    between atoms: _2292  and  _2293
REMARK  677  A    between atoms: _2292  and  _2295
REMARK  678  A    between atoms: _2295  and  _2296
REMARK  679  A    between atoms: _2315  and  _2316
REMARK  680  A    between atoms: _2316  and  _2317
REMARK  681  A    between atoms: _2316  and  _2319
REMARK  682  A    between atoms: _2319  and  _2320
REMARK  683  A    between atoms: _2320  and  _2321
REMARK  684  A    between atoms: _2330  and  _2331
REMARK  685  A    between atoms: _2331  and  _2332
REMARK  686  A    between atoms: _2331  and  _2334
REMARK  687  A    between atoms: _2334  and  _2335
REMARK  688  A    between atoms: _2341  and  _2342
REMARK  689  A    between atoms: _2342  and  _2343
REMARK  690  A    between atoms: _2342  and  _2345
REMARK  691  A    between atoms: _2345  and  _2346
REMARK  692  A    between atoms: _2352  and  _2353
REMARK  693  A    between atoms: _2353  and  _2354
REMARK  694  A    between atoms: _2353  and  _2356
REMARK  695  A    between atoms: _2362  and  _2363
REMARK  696  A    between atoms: _2363  and  _2364
REMARK  697  A    between atoms: _2369  and  _2370
REMARK  698  A    between atoms: _2370  and  _2371
REMARK  699  A    between atoms: _2376  and  _2377
REMARK  700  A    between atoms: _2377  and  _2378
REMARK  701  A    between atoms: _2377  and  _2380
REMARK  702  A    between atoms: _2380  and  _2381
REMARK  703  A    between atoms: _2387  and  _2388
REMARK  704  A    between atoms: _2388  and  _2389
REMARK  705  A    between atoms: _2388  and  _2391
REMARK  706  A    between atoms: _2391  and  _2392
REMARK  707  A    between atoms: _2407  and  _2408
REMARK  708  A    between atoms: _2408  and  _2409
REMARK  709  A    between atoms: _2408  and  _2411
REMARK  710  A    between atoms: _2411  and  _2412
REMARK  711  A    between atoms: _2411  and  _2413
REMARK  712  A    between atoms: _2421  and  _2422
REMARK  713  A    between atoms: _2422  and  _2423
REMARK  714  A    between atoms: _2422  and  _2425
REMARK  715  A    between atoms: _2425  and  _2426
REMARK  716  A    between atoms: _2425  and  _2427
REMARK  717  A    between atoms: _2437  and  _2438
REMARK  718  A    between atoms: _2438  and  _2439
REMARK  719  A    between atoms: _2438  and  _2441
REMARK  720  A    between atoms: _2441  and  _2442
REMARK  721  A    between atoms: _2442  and  _2443
REMARK  722  A    between atoms: _2443  and  _2444
REMARK  723  A    between atoms: _2461  and  _2462
REMARK  724  A    between atoms: _2462  and  _2463
REMARK  725  A    between atoms: _2462  and  _2465
REMARK  726  A    between atoms: _2465  and  _2466
REMARK  727  A    between atoms: _2465  and  _2467
REMARK  728  A    between atoms: _2475  and  _2476
REMARK  729  A    between atoms: _2476  and  _2477
REMARK  730  A    between atoms: _2476  and  _2479
REMARK  731  A    between atoms: _2479  and  _2480
REMARK  732  A    between atoms: _2487  and  _2488
REMARK  733  A    between atoms: _2488  and  _2489
REMARK  734  A    between atoms: _2488  and  _2491
REMARK  735  A    between atoms: _2491  and  _2492
REMARK  736  A    between atoms: _2491  and  _2493
REMARK  737  A    between atoms: _2501  and  _2502
REMARK  738  A    between atoms: _2502  and  _2503
REMARK  739  A    between atoms: _2508  and  _2509
REMARK  740  A    between atoms: _2509  and  _2510
REMARK  741  A    between atoms: _2509  and  _2512
REMARK  742  A    between atoms: _2512  and  _2513
REMARK  743  A    between atoms: _2513  and  _2514
REMARK  744  A    between atoms: _2524  and  _2525
REMARK  745  A    between atoms: _2537  and  _2538
REMARK  746  A    between atoms: _2538  and  _2539
REMARK  747  A    between atoms: _2538  and  _2541
REMARK  748  A    between atoms: _2541  and  _2542
REMARK  749  A    between atoms: _2542  and  _2543
REMARK  750  A    between atoms: _2543  and  _2544
REMARK  751  A    between atoms: _2554  and  _2555
REMARK  752  A    between atoms: _2555  and  _2556
REMARK  753  A    between atoms: _2561  and  _2562
REMARK  754  A    between atoms: _2562  and  _2563
REMARK  755  A    between atoms: _2562  and  _2565
REMARK  756  A    between atoms: _2565  and  _2566
REMARK  757  A    between atoms: _2566  and  _2567
REMARK  758  A    between atoms: _2567  and  _2568
REMARK  759  A    between atoms: _2585  and  _2586
REMARK  760  A    between atoms: _2586  and  _2587
REMARK  761  A    between atoms: _2592  and  _2593
REMARK  762  A    between atoms: _2593  and  _2594
REMARK  763  A    between atoms: _2593  and  _2596
REMARK  764  A    between atoms: _2596  and  _2597
REMARK  765  A    between atoms: _2596  and  _2598
REMARK  766  A    between atoms: _2606  and  _2607
REMARK  767  A    between atoms: _2607  and  _2608
REMARK  768  A    between atoms: _2607  and  _2610
REMARK  769  A    between atoms: _2610  and  _2611
REMARK  770  A    between atoms: _2611  and  _2612
REMARK  771  A    between atoms: _2612  and  _2613
REMARK  772  A    between atoms: _2613  and  _2614
REMARK  773  A    between atoms: _2628  and  _2629
REMARK  774  A    between atoms: _2629  and  _2630
REMARK  775  A    between atoms: _2629  and  _2632
REMARK  776  A    between atoms: _2632  and  _2633
REMARK  777  A    between atoms: _2632  and  _2634
REMARK  778  A    between atoms: _2644  and  _2645
REMARK  779  A    between atoms: _2645  and  _2646
REMARK  780  A    between atoms: _2645  and  _2648
REMARK  781  A    between atoms: _2648  and  _2649
REMARK  782  A    between atoms: _2648  and  _2650
REMARK  783  A    between atoms: _2649  and  _2651
REMARK  784  A    between atoms: _2663  and  _2664
REMARK  785  A    between atoms: _2664  and  _2665
REMARK  786  A    between atoms: _2664  and  _2667
REMARK  787  A    between atoms: _2667  and  _2668
REMARK  788  A    between atoms: _2668  and  _2669
REMARK  789  A    between atoms: _2668  and  _2670
REMARK  790  A    between atoms: _2682  and  _2683
REMARK  791  A    between atoms: _2683  and  _2684
REMARK  792  A    between atoms: _2683  and  _2686
REMARK  793  A    between atoms: _2686  and  _2687
REMARK  794  A    between atoms: _2699  and  _2700
REMARK  795  A    between atoms: _2700  and  _2701
REMARK  796  A    between atoms: _2700  and  _2703
REMARK  797  A    between atoms: _2703  and  _2704
REMARK  798  A    between atoms: _2704  and  _2705
REMARK  799  A    between atoms: _2704  and  _2706
REMARK  800  A    between atoms: _2718  and  _2719
REMARK  801  A    between atoms: _2719  and  _2720
REMARK  802  A    between atoms: _2719  and  _2722
REMARK  803  A    between atoms: _2722  and  _2723
REMARK  804  A    between atoms: _2723  and  _2724
REMARK  805  A    between atoms: _2724  and  _2725
REMARK  806  A    between atoms: _2725  and  _2726
REMARK  807  A    between atoms: _2740  and  _2741
REMARK  808  A    between atoms: _2741  and  _2742
REMARK  809  A    between atoms: _2741  and  _2744
REMARK  810  A    between atoms: _2744  and  _2745
REMARK  811  A    between atoms: _2745  and  _2746
REMARK  812  A    between atoms: _2755  and  _2756
REMARK  813  A    between atoms: _2756  and  _2757
REMARK  814  A    between atoms: _2756  and  _2759
REMARK  815  A    between atoms: _2759  and  _2760
REMARK  816  A    between atoms: _2767  and  _2768
REMARK  817  A    between atoms: _2768  and  _2769
REMARK  818  A    between atoms: _2768  and  _2771
REMARK  819  A    between atoms: _2771  and  _2772
REMARK  820  A    between atoms: _2772  and  _2773
REMARK  821  A    between atoms: _2784  and  _2785
REMARK  822  A    between atoms: _2785  and  _2786
REMARK  823  A    between atoms: _2785  and  _2788
REMARK  824  A    between atoms: _2788  and  _2789
REMARK  825  A    between atoms: _2788  and  _2790
REMARK  826  A    between atoms: _2798  and  _2799
REMARK  827  A    between atoms: _2799  and  _2800
REMARK  828  A    between atoms: _2799  and  _2802
REMARK  829  A    between atoms: _2802  and  _2803
REMARK  830  A    between atoms: _2803  and  _2804
REMARK  831  A    between atoms: _2813  and  _2814
REMARK  832  A    between atoms: _2814  and  _2815
REMARK  833  A    between atoms: _2814  and  _2817
REMARK  834  A    between atoms: _2817  and  _2818
REMARK  835  A    between atoms: _2823  and  _2824
REMARK  836  A    between atoms: _2834  and  _2835
REMARK  837  A    between atoms: _2835  and  _2838
REMARK  838  A    between atoms: _2838  and  _2839
REMARK  839  A    between atoms: _2839  and  _2840
REMARK  840  A    between atoms: _2839  and  _2841
REMARK  841  A    between atoms: _2884  and  _2885
REMARK  842  A    between atoms: _2884  and  _2887
REMARK  843  A    between atoms: _2887  and  _2888
REMARK  844  A    between atoms: _2888  and  _2889
REMARK  845  A    between atoms: _2899  and  _2900
REMARK  846  A    between atoms: _2900  and  _2901
REMARK  847  A    between atoms: _2900  and  _2903
REMARK  848  A    between atoms: _2903  and  _2904
REMARK  849  A    between atoms: _2904  and  _2905
REMARK  850  A    between atoms: _2905  and  _2906
REMARK  851  A    between atoms: _2923  and  _2924
REMARK  852  A    between atoms: _2924  and  _2925
REMARK  853  A    between atoms: _2924  and  _2927
REMARK  854  A    between atoms: _2927  and  _2928
REMARK  855  A    between atoms: _2928  and  _2929
REMARK  856  A    between atoms: _2929  and  _2930
REMARK  857  A    between atoms: _2947  and  _2948
REMARK  858  A    between atoms: _2948  and  _2949
REMARK  859  A    between atoms: _2948  and  _2951
REMARK  860  A    between atoms: _2951  and  _2952
REMARK  861  A    between atoms: _2951  and  _2953
REMARK  862  A    between atoms: _2952  and  _2954
REMARK  863  A    between atoms: _2966  and  _2967
REMARK  864  A    between atoms: _2967  and  _2968
REMARK  865  A    between atoms: _2967  and  _2970
REMARK  866  A    between atoms: _2970  and  _2971
REMARK  867  A    between atoms: _2971  and  _2972
REMARK  868  A    between atoms: _2972  and  _2973
REMARK  869  A    between atoms: _2973  and  _2974
REMARK  870  A    between atoms: _2988  and  _2989
REMARK  871  A    between atoms: _2989  and  _2990
REMARK  872  A    between atoms: _2989  and  _2992
REMARK  873  A    between atoms: _2992  and  _2993
REMARK  874  A    between atoms: _2993  and  _2994
REMARK  875  A    between atoms: _3003  and  _3004
REMARK  876  A    between atoms: _3004  and  _3005
REMARK  877  A    between atoms: _3004  and  _3007
REMARK  878  A    between atoms: _3007  and  _3008
REMARK  879  A    between atoms: _3007  and  _3009
REMARK  880  A    between atoms: _3008  and  _3010
REMARK  881  A    between atoms: _3022  and  _3023
REMARK  882  A    between atoms: _3023  and  _3024
REMARK  883  A    between atoms: _3023  and  _3026
REMARK  884  A    between atoms: _3026  and  _3027
REMARK  885  A    between atoms: _3026  and  _3028
REMARK  886  A    between atoms: _3038  and  _3039
REMARK  887  A    between atoms: _3039  and  _3040
REMARK  888  A    between atoms: _3039  and  _3042
REMARK  889  A    between atoms: _3042  and  _3043
REMARK  890  A    between atoms: _3043  and  _3044
REMARK  891  A    between atoms: _3044  and  _3045
REMARK  892  A    between atoms: _3045  and  _3046
REMARK  893  A    between atoms: _3060  and  _3061
REMARK  894  A    between atoms: _3061  and  _3062
REMARK  895  A    between atoms: _3061  and  _3064
REMARK  896  A    between atoms: _3064  and  _3065
REMARK  897  A    between atoms: _3065  and  _3066
REMARK  898  A    between atoms: _3066  and  _3067
REMARK  899  A    between atoms: _3067  and  _3068
REMARK  900  A    between atoms: _3082  and  _3083
REMARK  901  A    between atoms: _3083  and  _3084
REMARK  902  A    between atoms: _3083  and  _3086
REMARK  903  A    between atoms: _3086  and  _3087
REMARK  904  A    between atoms: _3099  and  _3100
REMARK  905  A    between atoms: _3100  and  _3101
REMARK  906  A    between atoms: _3100  and  _3103
REMARK  907  A    between atoms: _3103  and  _3104
REMARK  908  A    between atoms: _3110  and  _3111
REMARK  909  A    between atoms: _3111  and  _3112
REMARK  910  A    between atoms: _3111  and  _3114
REMARK  911  A    between atoms: _3114  and  _3115
REMARK  912  A    between atoms: _3115  and  _3116
REMARK  913  A    between atoms: _3127  and  _3128
REMARK  914  A    between atoms: _3128  and  _3129
REMARK  915  A    between atoms: _3128  and  _3131
REMARK  916  A    between atoms: _3131  and  _3132
REMARK  917  A    between atoms: _3147  and  _3148
REMARK  918  A    between atoms: _3148  and  _3149
REMARK  919  A    between atoms: _3148  and  _3151
REMARK  920  A    between atoms: _3151  and  _3152
REMARK  921  A    between atoms: _3151  and  _3153
REMARK  922  A    between atoms: _3152  and  _3154
REMARK  923  A    between atoms: _3166  and  _3167
REMARK  924  A    between atoms: _3167  and  _3168
REMARK  925  A    between atoms: _3173  and  _3174
REMARK  926  A    between atoms: _3174  and  _3175
REMARK  927  A    between atoms: _3174  and  _3177
REMARK  928  A    between atoms: _3177  and  _3178
REMARK  929  A    between atoms: _3183  and  _3184
REMARK  930  A    between atoms: _3195  and  _3196
REMARK  931  A    between atoms: _3208  and  _3209
REMARK  932  A    between atoms: _3209  and  _3210
REMARK  933  A    between atoms: _3209  and  _3212
REMARK  934  A    between atoms: _3212  and  _3213
REMARK  935  A    between atoms: _3212  and  _3214
REMARK  936  A    between atoms: _3213  and  _3215
REMARK  937  A    between atoms: _3227  and  _3228
REMARK  938  A    between atoms: _3228  and  _3229
REMARK  939  A    between atoms: _3228  and  _3231
REMARK  940  A    between atoms: _3231  and  _3232
REMARK  941  A    between atoms: _3231  and  _3233
REMARK  942  A    between atoms: _3241  and  _3242
REMARK  943  A    between atoms: _3242  and  _3243
REMARK  944  A    between atoms: _3242  and  _3245
REMARK  945  A    between atoms: _3245  and  _3246
REMARK  946  A    between atoms: _3246  and  _3247
REMARK  947  A    between atoms: _3246  and  _3248
REMARK  948  A    between atoms: _3260  and  _3261
REMARK  949  A    between atoms: _3261  and  _3262
REMARK  950  A    between atoms: _3261  and  _3264
REMARK  951  A    between atoms: _3264  and  _3265
REMARK  952  A    between atoms: _3280  and  _3281
REMARK  953  A    between atoms: _3281  and  _3282
REMARK  954  A    between atoms: _3281  and  _3284
REMARK  955  A    between atoms: _3284  and  _3285
REMARK  956  A    between atoms: _3284  and  _3286
REMARK  957  A    between atoms: _3296  and  _3297
REMARK  958  A    between atoms: _3297  and  _3298
REMARK  959  A    between atoms: _3297  and  _3300
REMARK  960  A    between atoms: _3300  and  _3301
REMARK  961  A    between atoms: _3301  and  _3302
REMARK                            x       y       z     vdW  Elec       q    Type
REMARK                         _______ _______ _______ _____ _____    ______ ____
ROOT
ATOM      1  N   UNL     1     -11.682  21.091  40.532  0.00  0.00    -0.163 NA
ATOM      2  H   UNL     1     -12.122  20.178  40.481  0.00  0.00    +0.163 HD
ENDROOT
TORSDOF 0
REMARK  Name = /Users/mlugowska/PhD/ML_residence_time_prediction/protein_files/5J20_protein.pdb
REMARK  961 active torsions:
REMARK  status: ('A' for Active; 'I' for Inactive)
REMARK    1  A    between atoms: _2  and  _3
REMARK    2  A    between atoms: _2  and  _5
REMARK    3  A    between atoms: _10  and  _11
REMARK    4  A    between atoms: _11  and  _12
REMARK    5  A    between atoms: _11  and  _14
REMARK    6  A    between atoms: _14  and  _15
REMARK    7  A    between atoms: _14  and  _16
REMARK    8  A    between atoms: _26  and  _27
REMARK    9  A    between atoms: _27  and  _28
REMARK   10  A    between atoms: _27  and  _30
REMARK   11  A    between atoms: _30  and  _31
REMARK   12  A    between atoms: _31  and  _32
REMARK   13  A    between atoms: _41  and  _42
REMARK   14  A    between atoms: _42  and  _43
REMARK   15  A    between atoms: _42  and  _45
REMARK   16  A    between atoms: _45  and  _46
REMARK   17  A    between atoms: _45  and  _47
REMARK   18  A    between atoms: _55  and  _56
REMARK   19  A    between atoms: _56  and  _57
REMARK   20  A    between atoms: _56  and  _59
REMARK   21  A    between atoms: _59  and  _60
REMARK   22  A    between atoms: _75  and  _76
REMARK   23  A    between atoms: _76  and  _77
REMARK   24  A    between atoms: _76  and  _79
REMARK   25  A    between atoms: _85  and  _86
REMARK   26  A    between atoms: _86  and  _87
REMARK   27  A    between atoms: _86  and  _89
REMARK   28  A    between atoms: _89  and  _90
REMARK   29  A    between atoms: _105  and  _106
REMARK   30  A    between atoms: _106  and  _107
REMARK   31  A    between atoms: _106  and  _109
REMARK   32  A    between atoms: _109  and  _110
REMARK   33  A    between atoms: _110  and  _111
REMARK   34  A    between atoms: _122  and  _123
REMARK   35  A    between atoms: _123  and  _124
REMARK   36  A    between atoms: _123  and  _126
REMARK   37  A    between atoms: _132  and  _133
REMARK   38  A    between atoms: _133  and  _134
REMARK   39  A    between atoms: _133  and  _136
REMARK   40  A    between atoms: _136  and  _137
REMARK   41  A    between atoms: _137  and  _138
REMARK   42  A    between atoms: _147  and  _148
REMARK   43  A    between atoms: _148  and  _149
REMARK   44  A    between atoms: _148  and  _151
REMARK   45  A    between atoms: _151  and  _152
REMARK   46  A    between atoms: _151  and  _153
REMARK   47  A    between atoms: _152  and  _154
REMARK   48  A    between atoms: _166  and  _167
REMARK   49  A    between atoms: _167  and  _168
REMARK   50  A    between atoms: _167  and  _170
REMARK   51  A    between atoms: _176  and  _177
REMARK   52  A    between atoms: _177  and  _178
REMARK   53  A    between atoms: _177  and  _180
REMARK   54  A    between atoms: _180  and  _181
REMARK   55  A    between atoms: _181  and  _182
REMARK   56  A    between atoms: _193  and  _194
REMARK   57  A    between atoms: _194  and  _195
REMARK   58  A    between atoms: _194  and  _197
REMARK   59  A    between atoms: _197  and  _198
REMARK   60  A    between atoms: _198  and  _199
REMARK   61  A    between atoms: _198  and  _200
REMARK   62  A    between atoms: _212  and  _213
REMARK   63  A    between atoms: _213  and  _214
REMARK   64  A    between atoms: _213  and  _216
REMARK   65  A    between atoms: _216  and  _217
REMARK   66  A    between atoms: _217  and  _218
REMARK   67  A    between atoms: _218  and  _219
REMARK   68  A    between atoms: _229  and  _230
REMARK   69  A    between atoms: _230  and  _231
REMARK   70  A    between atoms: _230  and  _233
REMARK   71  A    between atoms: _233  and  _234
REMARK   72  A    between atoms: _240  and  _241
REMARK   73  A    between atoms: _241  and  _242
REMARK   74  A    between atoms: _241  and  _244
REMARK   75  A    between atoms: _244  and  _245
REMARK   76  A    between atoms: _245  and  _246
REMARK   77  A    between atoms: _245  and  _247
REMARK   78  A    between atoms: _259  and  _260
REMARK   79  A    between atoms: _260  and  _261
REMARK   80  A    between atoms: _260  and  _263
REMARK   81  A    between atoms: _263  and  _264
REMARK   82  A    between atoms: _263  and  _265
REMARK   83  A    between atoms: _264  and  _266
REMARK   84  A    between atoms: _278  and  _279
REMARK   85  A    between atoms: _279  and  _280
REMARK   86  A    between atoms: _279  and  _282
REMARK   87  A    between atoms: _282  and  _283
REMARK   88  A    between atoms: _282  and  _284
REMARK   89  A    between atoms: _283  and  _285
REMARK   90  A    between atoms: _297  and  _298
REMARK   91  A    between atoms: _298  and  _299
REMARK   92  A    between atoms: _298  and  _301
REMARK   93  A    between atoms: _301  and  _302
REMARK   94  A    between atoms: _311  and  _312
REMARK   95  A    between atoms: _312  and  _313
REMARK   96  A    between atoms: _312  and  _315
REMARK   97  A    between atoms: _315  and  _316
REMARK   98  A    between atoms: _315  and  _317
REMARK   99  A    between atoms: _325  and  _326
REMARK  100  A    between atoms: _326  and  _327
REMARK  101  A    between atoms: _326  and  _329
REMARK  102  A    between atoms: _329  and  _330
REMARK  103  A    between atoms: _345  and  _346
REMARK  104  A    between atoms: _346  and  _347
REMARK  105  A    between atoms: _346  and  _349
REMARK  106  A    between atoms: _349  and  _350
REMARK  107  A    between atoms: _355  and  _356
REMARK  108  A    between atoms: _366  and  _367
REMARK  109  A    between atoms: _367  and  _368
REMARK  110  A    between atoms: _367  and  _370
REMARK  111  A    between atoms: _370  and  _371
REMARK  112  A    between atoms: _377  and  _378
REMARK  113  A    between atoms: _378  and  _379
REMARK  114  A    between atoms: _378  and  _381
REMARK  115  A    between atoms: _381  and  _382
REMARK  116  A    between atoms: _391  and  _392
REMARK  117  A    between atoms: _392  and  _393
REMARK  118  A    between atoms: _392  and  _395
REMARK  119  A    between atoms: _395  and  _396
REMARK  120  A    between atoms: _396  and  _397
REMARK  121  A    between atoms: _397  and  _398
REMARK  122  A    between atoms: _398  and  _399
REMARK  123  A    between atoms: _413  and  _414
REMARK  124  A    between atoms: _414  and  _415
REMARK  125  A    between atoms: _414  and  _417
REMARK  126  A    between atoms: _417  and  _418
REMARK  127  A    between atoms: _418  and  _419
REMARK  128  A    between atoms: _428  and  _429
REMARK  129  A    between atoms: _429  and  _430
REMARK  130  A    between atoms: _429  and  _432
REMARK  131  A    between atoms: _432  and  _433
REMARK  132  A    between atoms: _432  and  _434
REMARK  133  A    between atoms: _433  and  _435
REMARK  134  A    between atoms: _447  and  _448
REMARK  135  A    between atoms: _448  and  _449
REMARK  136  A    between atoms: _448  and  _451
REMARK  137  A    between atoms: _451  and  _452
REMARK  138  A    between atoms: _467  and  _468
REMARK  139  A    between atoms: _468  and  _469
REMARK  140  A    between atoms: _468  and  _471
REMARK  141  A    between atoms: _471  and  _472
REMARK  142  A    between atoms: _472  and  _473
REMARK  143  A    between atoms: _472  and  _474
REMARK  144  A    between atoms: _486  and  _487
REMARK  145  A    between atoms: _487  and  _488
REMARK  146  A    between atoms: _487  and  _490
REMARK  147  A    between atoms: _490  and  _491
REMARK  148  A    between atoms: _491  and  _492
REMARK  149  A    between atoms: _492  and  _493
REMARK  150  A    between atoms: _510  and  _511
REMARK  151  A    between atoms: _511  and  _512
REMARK  152  A    between atoms: _511  and  _514
REMARK  153  A    between atoms: _514  and  _515
REMARK  154  A    between atoms: _515  and  _516
REMARK  155  A    between atoms: _525  and  _526
REMARK  156  A    between atoms: _526  and  _527
REMARK  157  A    between atoms: _526  and  _529
REMARK  158  A    between atoms: _529  and  _530
REMARK  159  A    between atoms: _530  and  _531
REMARK  160  A    between atoms: _530  and  _532
REMARK  161  A    between atoms: _544  and  _545
REMARK  162  A    between atoms: _545  and  _546
REMARK  163  A    between atoms: _545  and  _548
REMARK  164  A    between atoms: _548  and  _549
REMARK  165  A    between atoms: _548  and  _550
REMARK  166  A    between atoms: _549  and  _551
REMARK  167  A    between atoms: _563  and  _564
REMARK  168  A    between atoms: _564  and  _565
REMARK  169  A    between atoms: _564  and  _567
REMARK  170  A    between atoms: _567  and  _568
REMARK  171  A    between atoms: _574  and  _575
REMARK  172  A    between atoms: _575  and  _576
REMARK  173  A    between atoms: _575  and  _578
REMARK  174  A    between atoms: _578  and  _579
REMARK  175  A    between atoms: _588  and  _589
REMARK  176  A    between atoms: _589  and  _590
REMARK  177  A    between atoms: _589  and  _592
REMARK  178  A    between atoms: _592  and  _593
REMARK  179  A    between atoms: _599  and  _600
REMARK  180  A    between atoms: _600  and  _601
REMARK  181  A    between atoms: _600  and  _603
REMARK  182  A    between atoms: _603  and  _604
REMARK  183  A    between atoms: _610  and  _611
REMARK  184  A    between atoms: _611  and  _612
REMARK  185  A    between atoms: _611  and  _614
REMARK  186  A    between atoms: _614  and  _615
REMARK  187  A    between atoms: _622  and  _623
REMARK  188  A    between atoms: _623  and  _624
REMARK  189  A    between atoms: _623  and  _626
REMARK  190  A    between atoms: _632  and  _633
REMARK  191  A    between atoms: _633  and  _634
REMARK  192  A    between atoms: _633  and  _636
REMARK  193  A    between atoms: _636  and  _637
REMARK  194  A    between atoms: _637  and  _638
REMARK  195  A    between atoms: _637  and  _639
REMARK  196  A    between atoms: _651  and  _652
REMARK  197  A    between atoms: _652  and  _653
REMARK  198  A    between atoms: _652  and  _655
REMARK  199  A    between atoms: _655  and  _656
REMARK  200  A    between atoms: _663  and  _664
REMARK  201  A    between atoms: _664  and  _665
REMARK  202  A    between atoms: _664  and  _667
REMARK  203  A    between atoms: _667  and  _668
REMARK  204  A    between atoms: _668  and  _669
REMARK  205  A    between atoms: _669  and  _670
REMARK  206  A    between atoms: _670  and  _671
REMARK  207  A    between atoms: _685  and  _686
REMARK  208  A    between atoms: _686  and  _687
REMARK  209  A    between atoms: _686  and  _689
REMARK  210  A    between atoms: _689  and  _690
REMARK  211  A    between atoms: _689  and  _691
REMARK  212  A    between atoms: _690  and  _692
REMARK  213  A    between atoms: _704  and  _705
REMARK  214  A    between atoms: _705  and  _706
REMARK  215  A    between atoms: _705  and  _708
REMARK  216  A    between atoms: _708  and  _709
REMARK  217  A    between atoms: _709  and  _710
REMARK  218  A    between atoms: _710  and  _711
REMARK  219  A    between atoms: _728  and  _729
REMARK  220  A    between atoms: _729  and  _730
REMARK  221  A    between atoms: _729  and  _732
REMARK  222  A    between atoms: _732  and  _733
REMARK  223  A    between atoms: _738  and  _739
REMARK  224  A    between atoms: _749  and  _750
REMARK  225  A    between atoms: _750  and  _751
REMARK  226  A    between atoms: _750  and  _753
REMARK  227  A    between atoms: _753  and  _754
REMARK  228  A    between atoms: _754  and  _755
REMARK  229  A    between atoms: _764  and  _765
REMARK  230  A    between atoms: _765  and  _766
REMARK  231  A    between atoms: _765  and  _768
REMARK  232  A    between atoms: _772  and  _773
REMARK  233  A    between atoms: _773  and  _774
REMARK  234  A    between atoms: _773  and  _776
REMARK  235  A    between atoms: _776  and  _777
REMARK  236  A    between atoms: _777  and  _778
REMARK  237  A    between atoms: _777  and  _779
REMARK  238  A    between atoms: _791  and  _792
REMARK  239  A    between atoms: _792  and  _793
REMARK  240  A    between atoms: _792  and  _795
REMARK  241  A    between atoms: _795  and  _796
REMARK  242  A    between atoms: _795  and  _797
REMARK  243  A    between atoms: _805  and  _806
REMARK  244  A    between atoms: _806  and  _807
REMARK  245  A    between atoms: _806  and  _809
REMARK  246  A    between atoms: _809  and  _810
REMARK  247  A    between atoms: _818  and  _819
REMARK  248  A    between atoms: _831  and  _832
REMARK  249  A    between atoms: _832  and  _833
REMARK  250  A    between atoms: _832  and  _835
REMARK  251  A    between atoms: _835  and  _836
REMARK  252  A    between atoms: _842  and  _843
REMARK  253  A    between atoms: _843  and  _844
REMARK  254  A    between atoms: _843  and  _846
REMARK  255  A    between atoms: _846  and  _847
REMARK  256  A    between atoms: _847  and  _848
REMARK  257  A    between atoms: _848  and  _849
REMARK  258  A    between atoms: _849  and  _850
REMARK  259  A    between atoms: _864  and  _865
REMARK  260  A    between atoms: _865  and  _866
REMARK  261  A    between atoms: _865  and  _868
REMARK  262  A    between atoms: _868  and  _869
REMARK  263  A    between atoms: _869  and  _870
REMARK  264  A    between atoms: _869  and  _871
REMARK  265  A    between atoms: _883  and  _884
REMARK  266  A    between atoms: _884  and  _885
REMARK  267  A    between atoms: _884  and  _887
REMARK  268  A    between atoms: _887  and  _888
REMARK  269  A    between atoms: _895  and  _896
REMARK  270  A    between atoms: _896  and  _897
REMARK  271  A    between atoms: _896  and  _899
REMARK  272  A    between atoms: _899  and  _900
REMARK  273  A    between atoms: _906  and  _907
REMARK  274  A    between atoms: _907  and  _908
REMARK  275  A    between atoms: _913  and  _914
REMARK  276  A    between atoms: _914  and  _915
REMARK  277  A    between atoms: _914  and  _917
REMARK  278  A    between atoms: _917  and  _918
REMARK  279  A    between atoms: _918  and  _919
REMARK  280  A    between atoms: _919  and  _920
REMARK  281  A    between atoms: _920  and  _921
REMARK  282  A    between atoms: _935  and  _936
REMARK  283  A    between atoms: _936  and  _937
REMARK  284  A    between atoms: _936  and  _939
REMARK  285  A    between atoms: _939  and  _940
REMARK  286  A    between atoms: _940  and  _941
REMARK  287  A    between atoms: _950  and  _951
REMARK  288  A    between atoms: _951  and  _952
REMARK  289  A    between atoms: _951  and  _954
REMARK  290  A    between atoms: _954  and  _955
REMARK  291  A    between atoms: _955  and  _956
REMARK  292  A    between atoms: _955  and  _957
REMARK  293  A    between atoms: _969  and  _970
REMARK  294  A    between atoms: _970  and  _971
REMARK  295  A    between atoms: _970  and  _973
REMARK  296  A    between atoms: _973  and  _974
REMARK  297  A    between atoms: _986  and  _987
REMARK  298  A    between atoms: _987  and  _988
REMARK  299  A    between atoms: _987  and  _990
REMARK  300  A    between atoms: _990  and  _991
REMARK  301  A    between atoms: _990  and  _992
REMARK  302  A    between atoms: _991  and  _993
REMARK  303  A    between atoms: _1005  and  _1006
REMARK  304  A    between atoms: _1006  and  _1007
REMARK  305  A    between atoms: _1006  and  _1009
REMARK  306  A    between atoms: _1009  and  _1010
REMARK  307  A    between atoms: _1019  and  _1020
REMARK  308  A    between atoms: _1020  and  _1021
REMARK  309  A    between atoms: _1020  and  _1023
REMARK  310  A    between atoms: _1023  and  _1024
REMARK  311  A    between atoms: _1024  and  _1025
REMARK  312  A    between atoms: _1024  and  _1026
REMARK  313  A    between atoms: _1038  and  _1039
REMARK  314  A    between atoms: _1039  and  _1040
REMARK  315  A    between atoms: _1039  and  _1042
REMARK  316  A    between atoms: _1042  and  _1043
REMARK  317  A    between atoms: _1042  and  _1044
REMARK  318  A    between atoms: _1043  and  _1045
REMARK  319  A    between atoms: _1058  and  _1059
REMARK  320  A    between atoms: _1071  and  _1072
REMARK  321  A    between atoms: _1072  and  _1073
REMARK  322  A    between atoms: _1072  and  _1075
REMARK  323  A    between atoms: _1075  and  _1076
REMARK  324  A    between atoms: _1085  and  _1086
REMARK  325  A    between atoms: _1086  and  _1087
REMARK  326  A    between atoms: _1086  and  _1089
REMARK  327  A    between atoms: _1089  and  _1090
REMARK  328  A    between atoms: _1090  and  _1091
REMARK  329  A    between atoms: _1091  and  _1092
REMARK  330  A    between atoms: _1092  and  _1093
REMARK  331  A    between atoms: _1107  and  _1108
REMARK  332  A    between atoms: _1108  and  _1109
REMARK  333  A    between atoms: _1108  and  _1111
REMARK  334  A    between atoms: _1111  and  _1112
REMARK  335  A    between atoms: _1112  and  _1113
REMARK  336  A    between atoms: _1124  and  _1125
REMARK  337  A    between atoms: _1125  and  _1126
REMARK  338  A    between atoms: _1125  and  _1128
REMARK  339  A    between atoms: _1128  and  _1129
REMARK  340  A    between atoms: _1136  and  _1137
REMARK  341  A    between atoms: _1137  and  _1138
REMARK  342  A    between atoms: _1137  and  _1140
REMARK  343  A    between atoms: _1140  and  _1141
REMARK  344  A    between atoms: _1141  and  _1142
REMARK  345  A    between atoms: _1142  and  _1143
REMARK  346  A    between atoms: _1160  and  _1161
REMARK  347  A    between atoms: _1161  and  _1162
REMARK  348  A    between atoms: _1161  and  _1164
REMARK  349  A    between atoms: _1164  and  _1165
REMARK  350  A    between atoms: _1164  and  _1166
REMARK  351  A    between atoms: _1174  and  _1175
REMARK  352  A    between atoms: _1175  and  _1176
REMARK  353  A    between atoms: _1175  and  _1178
REMARK  354  A    between atoms: _1178  and  _1179
REMARK  355  A    between atoms: _1179  and  _1180
REMARK  356  A    between atoms: _1179  and  _1181
REMARK  357  A    between atoms: _1193  and  _1194
REMARK  358  A    between atoms: _1194  and  _1195
REMARK  359  A    between atoms: _1194  and  _1197
REMARK  360  A    between atoms: _1197  and  _1198
REMARK  361  A    between atoms: _1197  and  _1199
REMARK  362  A    between atoms: _1207  and  _1208
REMARK  363  A    between atoms: _1208  and  _1209
REMARK  364  A    between atoms: _1208  and  _1211
REMARK  365  A    between atoms: _1211  and  _1212
REMARK  366  A    between atoms: _1211  and  _1213
REMARK  367  A    between atoms: _1212  and  _1214
REMARK  368  A    between atoms: _1226  and  _1227
REMARK  369  A    between atoms: _1227  and  _1228
REMARK  370  A    between atoms: _1227  and  _1230
REMARK  371  A    between atoms: _1230  and  _1231
REMARK  372  A    between atoms: _1230  and  _1232
REMARK  373  A    between atoms: _1242  and  _1243
REMARK  374  A    between atoms: _1243  and  _1244
REMARK  375  A    between atoms: _1243  and  _1246
REMARK  376  A    between atoms: _1246  and  _1247
REMARK  377  A    between atoms: _1254  and  _1255
REMARK  378  A    between atoms: _1255  and  _1256
REMARK  379  A    between atoms: _1255  and  _1258
REMARK  380  A    between atoms: _1258  and  _1259
REMARK  381  A    between atoms: _1258  and  _1260
REMARK  382  A    between atoms: _1268  and  _1269
REMARK  383  A    between atoms: _1269  and  _1270
REMARK  384  A    between atoms: _1275  and  _1276
REMARK  385  A    between atoms: _1276  and  _1277
REMARK  386  A    between atoms: _1276  and  _1279
REMARK  387  A    between atoms: _1279  and  _1280
REMARK  388  A    between atoms: _1279  and  _1281
REMARK  389  A    between atoms: _1280  and  _1282
REMARK  390  A    between atoms: _1294  and  _1295
REMARK  391  A    between atoms: _1295  and  _1296
REMARK  392  A    between atoms: _1301  and  _1302
REMARK  393  A    between atoms: _1302  and  _1303
REMARK  394  A    between atoms: _1302  and  _1305
REMARK  395  A    between atoms: _1305  and  _1306
REMARK  396  A    between atoms: _1306  and  _1307
REMARK  397  A    between atoms: _1307  and  _1308
REMARK  398  A    between atoms: _1318  and  _1319
REMARK  399  A    between atoms: _1319  and  _1320
REMARK  400  A    between atoms: _1319  and  _1322
REMARK  401  A    between atoms: _1322  and  _1323
REMARK  402  A    between atoms: _1322  and  _1324
REMARK  403  A    between atoms: _1332  and  _1333
REMARK  404  A    between atoms: _1333  and  _1334
REMARK  405  A    between atoms: _1333  and  _1336
REMARK  406  A    between atoms: _1336  and  _1337
REMARK  407  A    between atoms: _1337  and  _1338
REMARK  408  A    between atoms: _1338  and  _1339
REMARK  409  A    between atoms: _1339  and  _1340
REMARK  410  A    between atoms: _1354  and  _1355
REMARK  411  A    between atoms: _1355  and  _1356
REMARK  412  A    between atoms: _1355  and  _1358
REMARK  413  A    between atoms: _1364  and  _1365
REMARK  414  A    between atoms: _1365  and  _1366
REMARK  415  A    between atoms: _1365  and  _1368
REMARK  416  A    between atoms: _1368  and  _1369
REMARK  417  A    between atoms: _1376  and  _1377
REMARK  418  A    between atoms: _1377  and  _1378
REMARK  419  A    between atoms: _1377  and  _1380
REMARK  420  A    between atoms: _1380  and  _1381
REMARK  421  A    between atoms: _1381  and  _1382
REMARK  422  A    between atoms: _1381  and  _1383
REMARK  423  A    between atoms: _1395  and  _1396
REMARK  424  A    between atoms: _1396  and  _1399
REMARK  425  A    between atoms: _1399  and  _1400
REMARK  426  A    between atoms: _1399  and  _1401
REMARK  427  A    between atoms: _1400  and  _1402
REMARK  428  A    between atoms: _1422  and  _1425
REMARK  429  A    between atoms: _1424  and  _1428
REMARK  430  A    between atoms: _1425  and  _1427
REMARK  431  A    between atoms: _1443  and  _1444
REMARK  432  A    between atoms: _1443  and  _1446
REMARK  433  A    between atoms: _1446  and  _1447
REMARK  434  A    between atoms: _1457  and  _1458
REMARK  435  A    between atoms: _1458  and  _1459
REMARK  436  A    between atoms: _1458  and  _1461
REMARK  437  A    between atoms: _1461  and  _1462
REMARK  438  A    between atoms: _1462  and  _1463
REMARK  439  A    between atoms: _1462  and  _1464
REMARK  440  A    between atoms: _1476  and  _1477
REMARK  441  A    between atoms: _1477  and  _1478
REMARK  442  A    between atoms: _1483  and  _1484
REMARK  443  A    between atoms: _1484  and  _1485
REMARK  444  A    between atoms: _1484  and  _1487
REMARK  445  A    between atoms: _1487  and  _1488
REMARK  446  A    between atoms: _1487  and  _1489
REMARK  447  A    between atoms: _1497  and  _1498
REMARK  448  A    between atoms: _1498  and  _1499
REMARK  449  A    between atoms: _1498  and  _1501
REMARK  450  A    between atoms: _1501  and  _1502
REMARK  451  A    between atoms: _1501  and  _1503
REMARK  452  A    between atoms: _1502  and  _1504
REMARK  453  A    between atoms: _1516  and  _1517
REMARK  454  A    between atoms: _1517  and  _1518
REMARK  455  A    between atoms: _1517  and  _1520
REMARK  456  A    between atoms: _1526  and  _1527
REMARK  457  A    between atoms: _1527  and  _1528
REMARK  458  A    between atoms: _1527  and  _1530
REMARK  459  A    between atoms: _1530  and  _1531
REMARK  460  A    between atoms: _1531  and  _1532
REMARK  461  A    between atoms: _1532  and  _1533
REMARK  462  A    between atoms: _1533  and  _1534
REMARK  463  A    between atoms: _1548  and  _1549
REMARK  464  A    between atoms: _1549  and  _1550
REMARK  465  A    between atoms: _1549  and  _1552
REMARK  466  A    between atoms: _1552  and  _1553
REMARK  467  A    between atoms: _1559  and  _1560
REMARK  468  A    between atoms: _1560  and  _1561
REMARK  469  A    between atoms: _1566  and  _1567
REMARK  470  A    between atoms: _1567  and  _1568
REMARK  471  A    between atoms: _1567  and  _1570
REMARK  472  A    between atoms: _1570  and  _1571
REMARK  473  A    between atoms: _1570  and  _1572
REMARK  474  A    between atoms: _1580  and  _1581
REMARK  475  A    between atoms: _1581  and  _1582
REMARK  476  A    between atoms: _1581  and  _1584
REMARK  477  A    between atoms: _1584  and  _1585
REMARK  478  A    between atoms: _1585  and  _1586
REMARK  479  A    between atoms: _1586  and  _1587
REMARK  480  A    between atoms: _1587  and  _1588
REMARK  481  A    between atoms: _1602  and  _1603
REMARK  482  A    between atoms: _1603  and  _1604
REMARK  483  A    between atoms: _1603  and  _1606
REMARK  484  A    between atoms: _1612  and  _1613
REMARK  485  A    between atoms: _1613  and  _1614
REMARK  486  A    between atoms: _1613  and  _1616
REMARK  487  A    between atoms: _1616  and  _1617
REMARK  488  A    between atoms: _1632  and  _1633
REMARK  489  A    between atoms: _1633  and  _1634
REMARK  490  A    between atoms: _1633  and  _1636
REMARK  491  A    between atoms: _1636  and  _1637
REMARK  492  A    between atoms: _1637  and  _1638
REMARK  493  A    between atoms: _1638  and  _1639
REMARK  494  A    between atoms: _1649  and  _1650
REMARK  495  A    between atoms: _1650  and  _1651
REMARK  496  A    between atoms: _1650  and  _1653
REMARK  497  A    between atoms: _1653  and  _1654
REMARK  498  A    between atoms: _1654  and  _1655
REMARK  499  A    between atoms: _1664  and  _1665
REMARK  500  A    between atoms: _1665  and  _1666
REMARK  501  A    between atoms: _1665  and  _1668
REMARK  502  A    between atoms: _1674  and  _1675
REMARK  503  A    between atoms: _1675  and  _1676
REMARK  504  A    between atoms: _1675  and  _1678
REMARK  505  A    between atoms: _1678  and  _1679
REMARK  506  A    between atoms: _1679  and  _1680
REMARK  507  A    between atoms: _1679  and  _1681
REMARK  508  A    between atoms: _1693  and  _1694
REMARK  509  A    between atoms: _1694  and  _1695
REMARK  510  A    between atoms: _1694  and  _1697
REMARK  511  A    between atoms: _1697  and  _1698
REMARK  512  A    between atoms: _1698  and  _1699
REMARK  513  A    between atoms: _1710  and  _1711
REMARK  514  A    between atoms: _1711  and  _1712
REMARK  515  A    between atoms: _1711  and  _1714
REMARK  516  A    between atoms: _1720  and  _1721
REMARK  517  A    between atoms: _1721  and  _1722
REMARK  518  A    between atoms: _1727  and  _1728
REMARK  519  A    between atoms: _1728  and  _1729
REMARK  520  A    between atoms: _1728  and  _1731
REMARK  521  A    between atoms: _1737  and  _1738
REMARK  522  A    between atoms: _1738  and  _1739
REMARK  523  A    between atoms: _1738  and  _1741
REMARK  524  A    between atoms: _1741  and  _1742
REMARK  525  A    between atoms: _1749  and  _1750
REMARK  526  A    between atoms: _1750  and  _1751
REMARK  527  A    between atoms: _1750  and  _1753
REMARK  528  A    between atoms: _1753  and  _1754
REMARK  529  A    between atoms: _1753  and  _1755
REMARK  530  A    between atoms: _1754  and  _1756
REMARK  531  A    between atoms: _1768  and  _1769
REMARK  532  A    between atoms: _1769  and  _1772
REMARK  533  A    between atoms: _1772  and  _1773
REMARK  534  A    between atoms: _1791  and  _1793
REMARK  535  A    between atoms: _1792  and  _1794
REMARK  536  A    between atoms: _1814  and  _1815
REMARK  537  A    between atoms: _1814  and  _1817
REMARK  538  A    between atoms: _1817  and  _1818
REMARK  539  A    between atoms: _1817  and  _1819
REMARK  540  A    between atoms: _1818  and  _1820
REMARK  541  A    between atoms: _1833  and  _1834
REMARK  542  A    between atoms: _1834  and  _1835
REMARK  543  A    between atoms: _1840  and  _1841
REMARK  544  A    between atoms: _1841  and  _1842
REMARK  545  A    between atoms: _1841  and  _1844
REMARK  546  A    between atoms: _1844  and  _1845
REMARK  547  A    between atoms: _1845  and  _1846
REMARK  548  A    between atoms: _1857  and  _1858
REMARK  549  A    between atoms: _1858  and  _1859
REMARK  550  A    between atoms: _1858  and  _1861
REMARK  551  A    between atoms: _1861  and  _1862
REMARK  552  A    between atoms: _1877  and  _1878
REMARK  553  A    between atoms: _1878  and  _1879
REMARK  554  A    between atoms: _1884  and  _1885
REMARK  555  A    between atoms: _1885  and  _1886
REMARK  556  A    between atoms: _1885  and  _1888
REMARK  557  A    between atoms: _1888  and  _1889
REMARK  558  A    between atoms: _1888  and  _1890
REMARK  559  A    between atoms: _1900  and  _1901
REMARK  560  A    between atoms: _1901  and  _1902
REMARK  561  A    between atoms: _1907  and  _1908
REMARK  562  A    between atoms: _1908  and  _1909
REMARK  563  A    between atoms: _1908  and  _1911
REMARK  564  A    between atoms: _1911  and  _1912
REMARK  565  A    between atoms: _1927  and  _1928
REMARK  566  A    between atoms: _1928  and  _1929
REMARK  567  A    between atoms: _1928  and  _1931
REMARK  568  A    between atoms: _1931  and  _1932
REMARK  569  A    between atoms: _1937  and  _1938
REMARK  570  A    between atoms: _1948  and  _1949
REMARK  571  A    between atoms: _1949  and  _1950
REMARK  572  A    between atoms: _1949  and  _1952
REMARK  573  A    between atoms: _1952  and  _1953
REMARK  574  A    between atoms: _1959  and  _1960
REMARK  575  A    between atoms: _1960  and  _1961
REMARK  576  A    between atoms: _1960  and  _1963
REMARK  577  A    between atoms: _1969  and  _1970
REMARK  578  A    between atoms: _1970  and  _1971
REMARK  579  A    between atoms: _1970  and  _1973
REMARK  580  A    between atoms: _1973  and  _1974
REMARK  581  A    between atoms: _1979  and  _1980
REMARK  582  A    between atoms: _1990  and  _1991
REMARK  583  A    between atoms: _1991  and  _1992
REMARK  584  A    between atoms: _1991  and  _1994
REMARK  585  A    between atoms: _1994  and  _1995
REMARK  586  A    between atoms: _1995  and  _1996
REMARK  587  A    between atoms: _1995  and  _1997
REMARK  588  A    between atoms: _2009  and  _2010
REMARK  589  A    between atoms: _2010  and  _2011
REMARK  590  A    between atoms: _2010  and  _2013
REMARK  591  A    between atoms: _2013  and  _2014
REMARK  592  A    between atoms: _2013  and  _2015
REMARK  593  A    between atoms: _2025  and  _2026
REMARK  594  A    between atoms: _2026  and  _2027
REMARK  595  A    between atoms: _2026  and  _2029
REMARK  596  A    between atoms: _2035  and  _2036
REMARK  597  A    between atoms: _2036  and  _2037
REMARK  598  A    between atoms: _2036  and  _2039
REMARK  599  A    between atoms: _2039  and  _2040
REMARK  600  A    between atoms: _2040  and  _2041
REMARK  601  A    between atoms: _2050  and  _2051
REMARK  602  A    between atoms: _2051  and  _2052
REMARK  603  A    between atoms: _2051  and  _2054
REMARK  604  A    between atoms: _2054  and  _2055
REMARK  605  A    between atoms: _2055  and  _2056
REMARK  606  A    between atoms: _2056  and  _2057
REMARK  607  A    between atoms: _2057  and  _2058
REMARK  608  A    between atoms: _2072  and  _2073
REMARK  609  A    between atoms: _2073  and  _2074
REMARK  610  A    between atoms: _2073  and  _2076
REMARK  611  A    between atoms: _2076  and  _2077
REMARK  612  A    between atoms: _2076  and  _2078
REMARK  613  A    between atoms: _2088  and  _2089
REMARK  614  A    between atoms: _2089  and  _2090
REMARK  615  A    between atoms: _2089  and  _2092
REMARK  616  A    between atoms: _2092  and  _2093
REMARK  617  A    between atoms: _2092  and  _2094
REMARK  618  A    between atoms: _2102  and  _2103
REMARK  619  A    between atoms: _2103  and  _2104
REMARK  620  A    between atoms: _2103  and  _2106
REMARK  621  A    between atoms: _2106  and  _2107
REMARK  622  A    between atoms: _2106  and  _2108
REMARK  623  A    between atoms: _2118  and  _2119
REMARK  624  A    between atoms: _2119  and  _2120
REMARK  625  A    between atoms: _2119  and  _2122
REMARK  626  A    between atoms: _2122  and  _2123
REMARK  627  A    between atoms: _2122  and  _2124
REMARK  628  A    between atoms: _2123  and  _2125
REMARK  629  A    between atoms: _2137  and  _2138
REMARK  630  A    between atoms: _2138  and  _2139
REMARK  631  A    between atoms: _2138  and  _2141
REMARK  632  A    between atoms: _2141  and  _2142
REMARK  633  A    between atoms: _2141  and  _2143
REMARK  634  A    between atoms: _2151  and  _2152
REMARK  635  A    between atoms: _2152  and  _2153
REMARK  636  A    between atoms: _2152  and  _2155
REMARK  637  A    between atoms: _2155  and  _2156
REMARK  638  A    between atoms: _2156  and  _2157
REMARK  639  A    between atoms: _2157  and  _2158
REMARK  640  A    between atoms: _2158  and  _2159
REMARK  641  A    between atoms: _2173  and  _2174
REMARK  642  A    between atoms: _2174  and  _2175
REMARK  643  A    between atoms: _2174  and  _2177
REMARK  644  A    between atoms: _2177  and  _2178
REMARK  645  A    between atoms: _2190  and  _2191
REMARK  646  A    between atoms: _2191  and  _2192
REMARK  647  A    between atoms: _2191  and  _2194
REMARK  648  A    between atoms: _2194  and  _2195
REMARK  649  A    between atoms: _2204  and  _2205
REMARK  650  A    between atoms: _2205  and  _2206
REMARK  651  A    between atoms: _2205  and  _2208
REMARK  652  A    between atoms: _2208  and  _2209
REMARK  653  A    between atoms: _2216  and  _2217
REMARK  654  A    between atoms: _2217  and  _2218
REMARK  655  A    between atoms: _2217  and  _2220
REMARK  656  A    between atoms: _2220  and  _2221
REMARK  657  A    between atoms: _2228  and  _2229
REMARK  658  A    between atoms: _2229  and  _2230
REMARK  659  A    between atoms: _2229  and  _2232
REMARK  660  A    between atoms: _2232  and  _2233
REMARK  661  A    between atoms: _2233  and  _2234
REMARK  662  A    between atoms: _2243  and  _2244
REMARK  663  A    between atoms: _2244  and  _2245
REMARK  664  A    between atoms: _2244  and  _2247
REMARK  665  A    between atoms: _2247  and  _2248
REMARK  666  A    between atoms: _2248  and  _2249
REMARK  667  A    between atoms: _2260  and  _2261
REMARK  668  A    between atoms: _2261  and  _2262
REMARK  669  A    between atoms: _2261  and  _2264
REMARK  670  A    between atoms: _2264  and  _2265
REMARK  671  A    between atoms: _2270  and  _2271
REMARK  672  A    between atoms: _2281  and  _2282
REMARK  673  A    between atoms: _2282  and  _2283
REMARK  674  A    between atoms: _2282  and  _2285
REMARK  675  A    between atoms: _2291  and  _2292
REMARK  676  A    between atoms: _2292  and  _2293
REMARK  677  A    between atoms: _2292  and  _2295
REMARK  678  A    between atoms: _2295  and  _2296
REMARK  679  A    between atoms: _2315  and  _2316
REMARK  680  A    between atoms: _2316  and  _2317
REMARK  681  A    between atoms: _2316  and  _2319
REMARK  682  A    between atoms: _2319  and  _2320
REMARK  683  A    between atoms: _2320  and  _2321
REMARK  684  A    between atoms: _2330  and  _2331
REMARK  685  A    between atoms: _2331  and  _2332
REMARK  686  A    between atoms: _2331  and  _2334
REMARK  687  A    between atoms: _2334  and  _2335
REMARK  688  A    between atoms: _2341  and  _2342
REMARK  689  A    between atoms: _2342  and  _2343
REMARK  690  A    between atoms: _2342  and  _2345
REMARK  691  A    between atoms: _2345  and  _2346
REMARK  692  A    between atoms: _2352  and  _2353
REMARK  693  A    between atoms: _2353  and  _2354
REMARK  694  A    between atoms: _2353  and  _2356
REMARK  695  A    between atoms: _2362  and  _2363
REMARK  696  A    between atoms: _2363  and  _2364
REMARK  697  A    between atoms: _2369  and  _2370
REMARK  698  A    between atoms: _2370  and  _2371
REMARK  699  A    between atoms: _2376  and  _2377
REMARK  700  A    between atoms: _2377  and  _2378
REMARK  701  A    between atoms: _2377  and  _2380
REMARK  702  A    between atoms: _2380  and  _2381
REMARK  703  A    between atoms: _2387  and  _2388
REMARK  704  A    between atoms: _2388  and  _2389
REMARK  705  A    between atoms: _2388  and  _2391
REMARK  706  A    between atoms: _2391  and  _2392
REMARK  707  A    between atoms: _2407  and  _2408
REMARK  708  A    between atoms: _2408  and  _2409
REMARK  709  A    between atoms: _2408  and  _2411
REMARK  710  A    between atoms: _2411  and  _2412
REMARK  711  A    between atoms: _2411  and  _2413
REMARK  712  A    between atoms: _2421  and  _2422
REMARK  713  A    between atoms: _2422  and  _2423
REMARK  714  A    between atoms: _2422  and  _2425
REMARK  715  A    between atoms: _2425  and  _2426
REMARK  716  A    between atoms: _2425  and  _2427
REMARK  717  A    between atoms: _2437  and  _2438
REMARK  718  A    between atoms: _2438  and  _2439
REMARK  719  A    between atoms: _2438  and  _2441
REMARK  720  A    between atoms: _2441  and  _2442
REMARK  721  A    between atoms: _2442  and  _2443
REMARK  722  A    between atoms: _2443  and  _2444
REMARK  723  A    between atoms: _2461  and  _2462
REMARK  724  A    between atoms: _2462  and  _2463
REMARK  725  A    between atoms: _2462  and  _2465
REMARK  726  A    between atoms: _2465  and  _2466
REMARK  727  A    between atoms: _2465  and  _2467
REMARK  728  A    between atoms: _2475  and  _2476
REMARK  729  A    between atoms: _2476  and  _2477
REMARK  730  A    between atoms: _2476  and  _2479
REMARK  731  A    between atoms: _2479  and  _2480
REMARK  732  A    between atoms: _2487  and  _2488
REMARK  733  A    between atoms: _2488  and  _2489
REMARK  734  A    between atoms: _2488  and  _2491
REMARK  735  A    between atoms: _2491  and  _2492
REMARK  736  A    between atoms: _2491  and  _2493
REMARK  737  A    between atoms: _2501  and  _2502
REMARK  738  A    between atoms: _2502  and  _2503
REMARK  739  A    between atoms: _2508  and  _2509
REMARK  740  A    between atoms: _2509  and  _2510
REMARK  741  A    between atoms: _2509  and  _2512
REMARK  742  A    between atoms: _2512  and  _2513
REMARK  743  A    between atoms: _2513  and  _2514
REMARK  744  A    between atoms: _2524  and  _2525
REMARK  745  A    between atoms: _2537  and  _2538
REMARK  746  A    between atoms: _2538  and  _2539
REMARK  747  A    between atoms: _2538  and  _2541
REMARK  748  A    between atoms: _2541  and  _2542
REMARK  749  A    between atoms: _2542  and  _2543
REMARK  750  A    between atoms: _2543  and  _2544
REMARK  751  A    between atoms: _2554  and  _2555
REMARK  752  A    between atoms: _2555  and  _2556
REMARK  753  A    between atoms: _2561  and  _2562
REMARK  754  A    between atoms: _2562  and  _2563
REMARK  755  A    between atoms: _2562  and  _2565
REMARK  756  A    between atoms: _2565  and  _2566
REMARK  757  A    between atoms: _2566  and  _2567
REMARK  758  A    between atoms: _2567  and  _2568
REMARK  759  A    between atoms: _2585  and  _2586
REMARK  760  A    between atoms: _2586  and  _2587
REMARK  761  A    between atoms: _2592  and  _2593
REMARK  762  A    between atoms: _2593  and  _2594
REMARK  763  A    between atoms: _2593  and  _2596
REMARK  764  A    between atoms: _2596  and  _2597
REMARK  765  A    between atoms: _2596  and  _2598
REMARK  766  A    between atoms: _2606  and  _2607
REMARK  767  A    between atoms: _2607  and  _2608
REMARK  768  A    between atoms: _2607  and  _2610
REMARK  769  A    between atoms: _2610  and  _2611
REMARK  770  A    between atoms: _2611  and  _2612
REMARK  771  A    between atoms: _2612  and  _2613
REMARK  772  A    between atoms: _2613  and  _2614
REMARK  773  A    between atoms: _2628  and  _2629
REMARK  774  A    between atoms: _2629  and  _2630
REMARK  775  A    between atoms: _2629  and  _2632
REMARK  776  A    between atoms: _2632  and  _2633
REMARK  777  A    between atoms: _2632  and  _2634
REMARK  778  A    between atoms: _2644  and  _2645
REMARK  779  A    between atoms: _2645  and  _2646
REMARK  780  A    between atoms: _2645  and  _2648
REMARK  781  A    between atoms: _2648  and  _2649
REMARK  782  A    between atoms: _2648  and  _2650
REMARK  783  A    between atoms: _2649  and  _2651
REMARK  784  A    between atoms: _2663  and  _2664
REMARK  785  A    between atoms: _2664  and  _2665
REMARK  786  A    between atoms: _2664  and  _2667
REMARK  787  A    between atoms: _2667  and  _2668
REMARK  788  A    between atoms: _2668  and  _2669
REMARK  789  A    between atoms: _2668  and  _2670
REMARK  790  A    between atoms: _2682  and  _2683
REMARK  791  A    between atoms: _2683  and  _2684
REMARK  792  A    between atoms: _2683  and  _2686
REMARK  793  A    between atoms: _2686  and  _2687
REMARK  794  A    between atoms: _2699  and  _2700
REMARK  795  A    between atoms: _2700  and  _2701
REMARK  796  A    between atoms: _2700  and  _2703
REMARK  797  A    between atoms: _2703  and  _2704
REMARK  798  A    between atoms: _2704  and  _2705
REMARK  799  A    between atoms: _2704  and  _2706
REMARK  800  A    between atoms: _2718  and  _2719
REMARK  801  A    between atoms: _2719  and  _2720
REMARK  802  A    between atoms: _2719  and  _2722
REMARK  803  A    between atoms: _2722  and  _2723
REMARK  804  A    between atoms: _2723  and  _2724
REMARK  805  A    between atoms: _2724  and  _2725
REMARK  806  A    between atoms: _2725  and  _2726
REMARK  807  A    between atoms: _2740  and  _2741
REMARK  808  A    between atoms: _2741  and  _2742
REMARK  809  A    between atoms: _2741  and  _2744
REMARK  810  A    between atoms: _2744  and  _2745
REMARK  811  A    between atoms: _2745  and  _2746
REMARK  812  A    between atoms: _2755  and  _2756
REMARK  813  A    between atoms: _2756  and  _2757
REMARK  814  A    between atoms: _2756  and  _2759
REMARK  815  A    between atoms: _2759  and  _2760
REMARK  816  A    between atoms: _2767  and  _2768
REMARK  817  A    between atoms: _2768  and  _2769
REMARK  818  A    between atoms: _2768  and  _2771
REMARK  819  A    between atoms: _2771  and  _2772
REMARK  820  A    between atoms: _2772  and  _2773
REMARK  821  A    between atoms: _2784  and  _2785
REMARK  822  A    between atoms: _2785  and  _2786
REMARK  823  A    between atoms: _2785  and  _2788
REMARK  824  A    between atoms: _2788  and  _2789
REMARK  825  A    between atoms: _2788  and  _2790
REMARK  826  A    between atoms: _2798  and  _2799
REMARK  827  A    between atoms: _2799  and  _2800
REMARK  828  A    between atoms: _2799  and  _2802
REMARK  829  A    between atoms: _2802  and  _2803
REMARK  830  A    between atoms: _2803  and  _2804
REMARK  831  A    between atoms: _2813  and  _2814
REMARK  832  A    between atoms: _2814  and  _2815
REMARK  833  A    between atoms: _2814  and  _2817
REMARK  834  A    between atoms: _2817  and  _2818
REMARK  835  A    between atoms: _2823  and  _2824
REMARK  836  A    between atoms: _2834  and  _2835
REMARK  837  A    between atoms: _2835  and  _2838
REMARK  838  A    between atoms: _2838  and  _2839
REMARK  839  A    between atoms: _2839  and  _2840
REMARK  840  A    between atoms: _2839  and  _2841
REMARK  841  A    between atoms: _2884  and  _2885
REMARK  842  A    between atoms: _2884  and  _2887
REMARK  843  A    between atoms: _2887  and  _2888
REMARK  844  A    between atoms: _2888  and  _2889
REMARK  845  A    between atoms: _2899  and  _2900
REMARK  846  A    between atoms: _2900  and  _2901
REMARK  847  A    between atoms: _2900  and  _2903
REMARK  848  A    between atoms: _2903  and  _2904
REMARK  849  A    between atoms: _2904  and  _2905
REMARK  850  A    between atoms: _2905  and  _2906
REMARK  851  A    between atoms: _2923  and  _2924
REMARK  852  A    between atoms: _2924  and  _2925
REMARK  853  A    between atoms: _2924  and  _2927
REMARK  854  A    between atoms: _2927  and  _2928
REMARK  855  A    between atoms: _2928  and  _2929
REMARK  856  A    between atoms: _2929  and  _2930
REMARK  857  A    between atoms: _2947  and  _2948
REMARK  858  A    between atoms: _2948  and  _2949
REMARK  859  A    between atoms: _2948  and  _2951
REMARK  860  A    between atoms: _2951  and  _2952
REMARK  861  A    between atoms: _2951  and  _2953
REMARK  862  A    between atoms: _2952  and  _2954
REMARK  863  A    between atoms: _2966  and  _2967
REMARK  864  A    between atoms: _2967  and  _2968
REMARK  865  A    between atoms: _2967  and  _2970
REMARK  866  A    between atoms: _2970  and  _2971
REMARK  867  A    between atoms: _2971  and  _2972
REMARK  868  A    between atoms: _2972  and  _2973
REMARK  869  A    between atoms: _2973  and  _2974
REMARK  870  A    between atoms: _2988  and  _2989
REMARK  871  A    between atoms: _2989  and  _2990
REMARK  872  A    between atoms: _2989  and  _2992
REMARK  873  A    between atoms: _2992  and  _2993
REMARK  874  A    between atoms: _2993  and  _2994
REMARK  875  A    between atoms: _3003  and  _3004
REMARK  876  A    between atoms: _3004  and  _3005
REMARK  877  A    between atoms: _3004  and  _3007
REMARK  878  A    between atoms: _3007  and  _3008
REMARK  879  A    between atoms: _3007  and  _3009
REMARK  880  A    between atoms: _3008  and  _3010
REMARK  881  A    between atoms: _3022  and  _3023
REMARK  882  A    between atoms: _3023  and  _3024
REMARK  883  A    between atoms: _3023  and  _3026
REMARK  884  A    between atoms: _3026  and  _3027
REMARK  885  A    between atoms: _3026  and  _3028
REMARK  886  A    between atoms: _3038  and  _3039
REMARK  887  A    between atoms: _3039  and  _3040
REMARK  888  A    between atoms: _3039  and  _3042
REMARK  889  A    between atoms: _3042  and  _3043
REMARK  890  A    between atoms: _3043  and  _3044
REMARK  891  A    between atoms: _3044  and  _3045
REMARK  892  A    between atoms: _3045  and  _3046
REMARK  893  A    between atoms: _3060  and  _3061
REMARK  894  A    between atoms: _3061  and  _3062
REMARK  895  A    between atoms: _3061  and  _3064
REMARK  896  A    between atoms: _3064  and  _3065
REMARK  897  A    between atoms: _3065  and  _3066
REMARK  898  A    between atoms: _3066  and  _3067
REMARK  899  A    between atoms: _3067  and  _3068
REMARK  900  A    between atoms: _3082  and  _3083
REMARK  901  A    between atoms: _3083  and  _3084
REMARK  902  A    between atoms: _3083  and  _3086
REMARK  903  A    between atoms: _3086  and  _3087
REMARK  904  A    between atoms: _3099  and  _3100
REMARK  905  A    between atoms: _3100  and  _3101
REMARK  906  A    between atoms: _3100  and  _3103
REMARK  907  A    between atoms: _3103  and  _3104
REMARK  908  A    between atoms: _3110  and  _3111
REMARK  909  A    between atoms: _3111  and  _3112
REMARK  910  A    between atoms: _3111  and  _3114
REMARK  911  A    between atoms: _3114  and  _3115
REMARK  912  A    between atoms: _3115  and  _3116
REMARK  913  A    between atoms: _3127  and  _3128
REMARK  914  A    between atoms: _3128  and  _3129
REMARK  915  A    between atoms: _3128  and  _3131
REMARK  916  A    between atoms: _3131  and  _3132
REMARK  917  A    between atoms: _3147  and  _3148
REMARK  918  A    between atoms: _3148  and  _3149
REMARK  919  A    between atoms: _3148  and  _3151
REMARK  920  A    between atoms: _3151  and  _3152
REMARK  921  A    between atoms: _3151  and  _3153
REMARK  922  A    between atoms: _3152  and  _3154
REMARK  923  A    between atoms: _3166  and  _3167
REMARK  924  A    between atoms: _3167  and  _3168
REMARK  925  A    between atoms: _3173  and  _3174
REMARK  926  A    between atoms: _3174  and  _3175
REMARK  927  A    between atoms: _3174  and  _3177
REMARK  928  A    between atoms: _3177  and  _3178
REMARK  929  A    between atoms: _3183  and  _3184
REMARK  930  A    between atoms: _3195  and  _3196
REMARK  931  A    between atoms: _3208  and  _3209
REMARK  932  A    between atoms: _3209  and  _3210
REMARK  933  A    between atoms: _3209  and  _3212
REMARK  934  A    between atoms: _3212  and  _3213
REMARK  935  A    between atoms: _3212  and  _3214
REMARK  936  A    between atoms: _3213  and  _3215
REMARK  937  A    between atoms: _3227  and  _3228
REMARK  938  A    between atoms: _3228  and  _3229
REMARK  939  A    between atoms: _3228  and  _3231
REMARK  940  A    between atoms: _3231  and  _3232
REMARK  941  A    between atoms: _3231  and  _3233
REMARK  942  A    between atoms: _3241  and  _3242
REMARK  943  A    between atoms: _3242  and  _3243
REMARK  944  A    between atoms: _3242  and  _3245
REMARK  945  A    between atoms: _3245  and  _3246
REMARK  946  A    between atoms: _3246  and  _3247
REMARK  947  A    between atoms: _3246  and  _3248
REMARK  948  A    between atoms: _3260  and  _3261
REMARK  949  A    between atoms: _3261  and  _3262
REMARK  950  A    between atoms: _3261  and  _3264
REMARK  951  A    between atoms: _3264  and  _3265
REMARK  952  A    between atoms: _3280  and  _3281
REMARK  953  A    between atoms: _3281  and  _3282
REMARK  954  A    between atoms: _3281  and  _3284
REMARK  955  A    between atoms: _3284  and  _3285
REMARK  956  A    between atoms: _3284  and  _3286
REMARK  957  A    between atoms: _3296  and  _3297
REMARK  958  A    between atoms: _3297  and  _3298
REMARK  959  A    between atoms: _3297  and  _3300
REMARK  960  A    between atoms: _3300  and  _3301
REMARK  961  A    between atoms: _3301  and  _3302
REMARK                            x       y       z     vdW  Elec       q    Type
REMARK                         _______ _______ _______ _____ _____    ______ ____
ROOT
ATOM      1  CA  HIS A  10      -5.927  36.343  40.677  0.00  0.00    +0.165 C 
ENDROOT
BRANCH   1   2
ATOM      2  C   HIS A  10      -6.505  36.877  39.346  0.00  0.00    +0.234 C 
ATOM      3  N   SER A  11      -7.772  36.567  38.978  0.00  0.00    -0.301 N 
ATOM      4  H   SER A  11      -8.438  36.056  39.548  0.00  0.00    +0.150 HD
ATOM      5  O   HIS A  10      -5.756  37.536  38.624  0.00  0.00    -0.274 OA
BRANCH   3   6
ATOM      6  CA  SER A  11      -8.301  36.963  37.658  0.00  0.00    +0.184 C 
BRANCH   6   7
ATOM      7  C   SER A  11      -9.801  37.369  37.600  0.00  0.00    +0.236 C 
ATOM      8  N   GLN A  12     -10.162  38.530  38.181  0.00  0.00    -0.302 N 
ATOM      9  H   GLN A  12      -9.512  39.123  38.688  0.00  0.00    +0.150 HD
ATOM     10  O   SER A  11     -10.595  36.682  36.956  0.00  0.00    -0.274 OA
BRANCH   8  11
ATOM     11  CA  GLN A  12     -11.537  39.074  38.135  0.00  0.00    +0.159 C 
BRANCH  11  12
ATOM     12  C   GLN A  12     -11.630  40.323  37.228  0.00  0.00    +0.234 C 
ATOM     13  O   GLN A  12     -12.690  40.950  37.181  0.00  0.00    -0.274 OA
ATOM     14  N   PHE A  13     -10.552  40.643  36.462  0.00  0.00    -0.302 N 
ATOM     15  H   PHE A  13      -9.719  40.067  36.400  0.00  0.00    +0.150 HD
BRANCH  14  16
ATOM     16  CA  PHE A  13     -10.475  41.805  35.558  0.00  0.00    +0.163 C 
BRANCH  16  17
ATOM     17  C   PHE A  13     -10.066  41.389  34.125  0.00  0.00    +0.234 C 
ATOM     18  N   ILE A  14     -10.581  40.242  33.695  0.00  0.00    -0.302 N 
ATOM     19  H   ILE A  14     -11.187  39.649  34.253  0.00  0.00    +0.150 HD
ATOM     20  O   PHE A  13      -9.322  42.082  33.422  0.00  0.00    -0.274 OA
BRANCH  18  21
ATOM     21  CA  ILE A  14     -10.361  39.716  32.356  0.00  0.00    +0.162 C 
BRANCH  21  22
ATOM     22  C   ILE A  14     -11.665  40.010  31.607  0.00  0.00    +0.234 C 
ATOM     23  O   ILE A  14     -12.739  39.662  32.095  0.00  0.00    -0.274 OA
ATOM     24  N   GLY A  15     -11.567  40.670  30.458  0.00  0.00    -0.305 N 
ATOM     25  H   GLY A  15     -10.684  40.935  30.034  0.00  0.00    +0.149 HD
BRANCH  24  26
ATOM     26  CA  GLY A  15     -12.710  41.079  29.645  0.00  0.00    +0.200 C 
BRANCH  26  27
ATOM     27  C   GLY A  15     -13.266  40.057  28.674  0.00  0.00    +0.231 C 
ATOM     28  N   TYR A  16     -13.034  38.761  28.948  0.00  0.00    -0.302 N 
ATOM     29  H   TYR A  16     -12.521  38.426  29.756  0.00  0.00    +0.150 HD
ATOM     30  O   GLY A  15     -13.865  40.425  27.655  0.00  0.00    -0.274 OA
BRANCH  28  31
ATOM     31  CA  TYR A  16     -13.494  37.660  28.110  0.00  0.00    +0.163 C 
BRANCH  31  32
ATOM     32  C   TYR A  16     -13.974  36.531  29.026  0.00  0.00    +0.237 C 
ATOM     33  O   TYR A  16     -13.436  36.351  30.121  0.00  0.00    -0.274 OA
ATOM     34  N   PRO A  17     -15.004  35.778  28.602  0.00  0.00    -0.288 N 
ATOM     35  CA  PRO A  17     -15.512  34.712  29.460  0.00  0.00    +0.162 C 
ATOM     36  CB  PRO A  17     -16.798  34.238  28.747  0.00  0.00    +0.033 C 
ATOM     37  CG  PRO A  17     -16.690  34.725  27.348  0.00  0.00    +0.021 C 
ATOM     38  CD  PRO A  17     -15.781  35.910  27.358  0.00  0.00    +0.109 C 
BRANCH  35  39
ATOM     39  C   PRO A  17     -14.504  33.586  29.657  0.00  0.00    +0.234 C 
ATOM     40  N   ILE A  18     -14.226  33.251  30.930  0.00  0.00    -0.302 N 
ATOM     41  H   ILE A  18     -14.605  33.739  31.735  0.00  0.00    +0.150 HD
ATOM     42  O   PRO A  17     -13.917  33.114  28.679  0.00  0.00    -0.274 OA
BRANCH  40  43
ATOM     43  CA  ILE A  18     -13.360  32.139  31.308  0.00  0.00    +0.162 C 
BRANCH  43  44
ATOM     44  C   ILE A  18     -14.303  30.996  31.732  0.00  0.00    +0.234 C 
ATOM     45  O   ILE A  18     -14.966  31.102  32.773  0.00  0.00    -0.274 OA
ATOM     46  N   THR A  19     -14.325  29.910  30.971  0.00  0.00    -0.300 N 
ATOM     47  H   THR A  19     -13.762  29.779  30.137  0.00  0.00    +0.150 HD
BRANCH  46  48
ATOM     48  CA  THR A  19     -15.192  28.763  31.284  0.00  0.00    +0.187 C 
BRANCH  48  49
ATOM     49  C   THR A  19     -14.361  27.590  31.782  0.00  0.00    +0.236 C 
ATOM     50  N   LEU A  20     -14.714  27.102  32.952  0.00  0.00    -0.302 N 
ATOM     51  H   LEU A  20     -15.403  27.539  33.555  0.00  0.00    +0.150 HD
ATOM     52  O   THR A  19     -13.414  27.145  31.122  0.00  0.00    -0.274 OA
BRANCH  50  53
ATOM     53  CA  LEU A  20     -14.118  25.907  33.523  0.00  0.00    +0.159 C 
BRANCH  53  54
ATOM     54  C   LEU A  20     -14.930  24.689  33.075  0.00  0.00    +0.234 C 
ATOM     55  O   LEU A  20     -16.113  24.593  33.383  0.00  0.00    -0.274 OA
ATOM     56  N   PHE A  21     -14.301  23.771  32.366  0.00  0.00    -0.302 N 
ATOM     57  H   PHE A  21     -13.321  23.835  32.113  0.00  0.00    +0.150 HD
BRANCH  56  58
ATOM     58  CA  PHE A  21     -14.959  22.539  31.897  0.00  0.00    +0.163 C 
BRANCH  58  59
ATOM     59  C   PHE A  21     -14.982  21.499  33.028  0.00  0.00    +0.234 C 
ATOM     60  O   PHE A  21     -13.934  21.111  33.513  0.00  0.00    -0.274 OA
ATOM     61  N   VAL A  22     -16.169  21.059  33.452  0.00  0.00    -0.302 N 
ATOM     62  H   VAL A  22     -17.053  21.358  33.054  0.00  0.00    +0.150 HD
BRANCH  61  63
ATOM     63  CA  VAL A  22     -16.299  20.047  34.506  0.00  0.00    +0.161 C 
BRANCH  63  64
ATOM     64  C   VAL A  22     -16.044  18.654  33.910  0.00  0.00    +0.234 C 
ATOM     65  N   GLU A  23     -15.283  17.793  34.587  0.00  0.00    -0.301 N 
ATOM     66  H   GLU A  23     -14.821  17.995  35.467  0.00  0.00    +0.150 HD
ATOM     67  O   VAL A  22     -16.612  18.345  32.878  0.00  0.00    -0.274 OA
BRANCH  65  68
ATOM     68  CA  GLU A  23     -15.077  16.429  34.073  0.00  0.00    +0.187 C 
BRANCH  68  69
ATOM     69  C   GLU A  23     -16.293  15.515  34.263  0.00  0.00    +0.376 C 
ATOM     70  OXT GLU A  23     -17.010  15.654  35.270  0.00  0.00    -0.244 OA
ATOM     71  O   GLU A  23     -16.551  14.682  33.367  0.00  0.00    -0.244 OA
ENDBRANCH  68  69
BRANCH  68  72
ATOM     72  CB  GLU A  23     -13.855  15.794  34.688  0.00  0.00    +0.045 C 
BRANCH  72  73
ATOM     73  CG  GLU A  23     -12.595  16.499  34.243  0.00  0.00    +0.127 C 
BRANCH  73  74
ATOM     74  CD  GLU A  23     -11.426  15.558  34.312  0.00  0.00    +0.356 C 
ATOM     75  OE2 GLU A  23     -10.679  15.618  35.314  0.00  0.00    -0.246 OA
ATOM     76  OE1 GLU A  23     -11.295  14.711  33.399  0.00  0.00    -0.246 OA
ENDBRANCH  73  74
ENDBRANCH  72  73
ENDBRANCH  68  72
ENDBRANCH  65  68
ENDBRANCH  63  64
BRANCH  63  77
ATOM     77  CB  VAL A  22     -17.714  20.099  35.138  0.00  0.00    +0.012 C 
ATOM     78  CG2 VAL A  22     -17.864  19.047  36.244  0.00  0.00    +0.009 C 
ATOM     79  CG1 VAL A  22     -18.028  21.502  35.658  0.00  0.00    +0.009 C 
ENDBRANCH  63  77
ENDBRANCH  61  63
ENDBRANCH  58  59
BRANCH  58  80
ATOM     80  CB  PHE A  21     -14.240  21.996  30.679  0.00  0.00    +0.067 C 
BRANCH  80  81
ATOM     81  CG  PHE A  21     -14.619  22.627  29.353  0.00  0.00    -0.045 A 
ATOM     82  CD2 PHE A  21     -14.972  23.971  29.269  0.00  0.00    +0.004 A 
ATOM     83  CE2 PHE A  21     -15.331  24.543  28.038  0.00  0.00    +0.000 A 
ATOM     84  CZ  PHE A  21     -15.252  23.805  26.886  0.00  0.00    +0.000 A 
ATOM     85  CE1 PHE A  21     -14.838  22.494  26.946  0.00  0.00    +0.000 A 
ATOM     86  CD1 PHE A  21     -14.540  21.903  28.181  0.00  0.00    +0.004 A 
ENDBRANCH  80  81
ENDBRANCH  58  80
ENDBRANCH  56  58
ENDBRANCH  53  54
BRANCH  53  87
ATOM     87  CB  LEU A  20     -14.094  26.010  35.046  0.00  0.00    +0.034 C 
BRANCH  87  88
ATOM     88  CG  LEU A  20     -13.571  24.789  35.822  0.00  0.00    -0.015 C 
ATOM     89  CD2 LEU A  20     -13.434  25.125  37.300  0.00  0.00    +0.007 C 
ATOM     90  CD1 LEU A  20     -12.221  24.278  35.255  0.00  0.00    +0.007 C 
ENDBRANCH  87  88
ENDBRANCH  53  87
ENDBRANCH  50  53
ENDBRANCH  48  49
BRANCH  48  91
ATOM     91  CB  THR A  19     -16.064  28.349  30.078  0.00  0.00    +0.141 C 
ATOM     92  CG2 THR A  19     -17.086  27.271  30.455  0.00  0.00    +0.040 C 
BRANCH  91  93
ATOM     93  OG1 THR A  19     -16.749  29.493  29.540  0.00  0.00    -0.390 OA
ATOM     94  HG1 THR A  19     -16.660  29.510  28.551  0.00  0.00    +0.210 HD
ENDBRANCH  91  93
ENDBRANCH  48  91
ENDBRANCH  46  48
ENDBRANCH  43  44
BRANCH  43  95
ATOM     95  CB  ILE A  18     -12.360  32.463  32.448  0.00  0.00    +0.015 C 
ATOM     96  CG2 ILE A  18     -11.518  31.206  32.823  0.00  0.00    +0.010 C 
BRANCH  95  97
ATOM     97  CG1 ILE A  18     -11.401  33.620  32.086  0.00  0.00    +0.002 C 
ATOM     98  CD1 ILE A  18     -10.743  34.267  33.346  0.00  0.00    +0.004 C 
ENDBRANCH  95  97
ENDBRANCH  43  95
ENDBRANCH  40  43
ENDBRANCH  35  39
ENDBRANCH  31  32
BRANCH  31  99
ATOM     99  CB  TYR A  16     -12.349  37.154  27.213  0.00  0.00    +0.067 C 
BRANCH  99 100
ATOM    100  CG  TYR A  16     -11.776  38.241  26.349  0.00  0.00    -0.045 A 
ATOM    101  CD2 TYR A  16     -10.682  38.986  26.773  0.00  0.00    +0.007 A 
ATOM    102  CE2 TYR A  16     -10.183  40.035  26.010  0.00  0.00    +0.045 A 
ATOM    103  CZ  TYR A  16     -10.829  40.406  24.844  0.00  0.00    +0.117 A 
ATOM    104  CE1 TYR A  16     -11.912  39.666  24.393  0.00  0.00    +0.045 A 
ATOM    105  CD1 TYR A  16     -12.397  38.611  25.162  0.00  0.00    +0.007 A 
BRANCH 103 106
ATOM    106  OH  TYR A  16     -10.330  41.406  24.051  0.00  0.00    -0.507 OA
ATOM    107  HH  TYR A  16      -9.801  42.047  24.595  0.00  0.00    +0.292 HD
ENDBRANCH 103 106
ENDBRANCH  99 100
ENDBRANCH  31  99
ENDBRANCH  28  31
ENDBRANCH  26  27
ENDBRANCH  24  26
ENDBRANCH  21  22
BRANCH  21 108
ATOM    108  CB  ILE A  14     -10.011  38.201  32.449  0.00  0.00    +0.015 C 
ATOM    109  CG2 ILE A  14      -9.916  37.570  31.065  0.00  0.00    +0.010 C 
BRANCH 108 110
ATOM    110  CG1 ILE A  14      -8.723  37.946  33.299  0.00  0.00    +0.002 C 
ATOM    111  CD1 ILE A  14      -7.392  38.456  32.731  0.00  0.00    +0.004 C 
ENDBRANCH 108 110
ENDBRANCH  21 108
ENDBRANCH  18  21
ENDBRANCH  16  17
BRANCH  16 112
ATOM    112  CB  PHE A  13      -9.523  42.867  36.137  0.00  0.00    +0.067 C 
BRANCH 112 113
ATOM    113  CG  PHE A  13      -8.269  42.321  36.773  0.00  0.00    -0.045 A 
ATOM    114  CD2 PHE A  13      -8.163  42.212  38.155  0.00  0.00    +0.004 A 
ATOM    115  CE2 PHE A  13      -7.014  41.689  38.744  0.00  0.00    +0.000 A 
ATOM    116  CZ  PHE A  13      -5.949  41.315  37.958  0.00  0.00    +0.000 A 
ATOM    117  CE1 PHE A  13      -6.034  41.420  36.587  0.00  0.00    +0.000 A 
ATOM    118  CD1 PHE A  13      -7.199  41.906  35.995  0.00  0.00    +0.004 A 
ENDBRANCH 112 113
ENDBRANCH  16 112
ENDBRANCH  14  16
ENDBRANCH  11  12
BRANCH  11 119
ATOM    119  CB  GLN A  12     -12.033  39.402  39.562  0.00  0.00    +0.041 C 
BRANCH 119 120
ATOM    120  CG  GLN A  12     -12.362  38.173  40.400  0.00  0.00    +0.098 C 
BRANCH 120 121
ATOM    121  CD  GLN A  12     -13.704  38.252  41.100  0.00  0.00    +0.211 C 
ATOM    122  OE1 GLN A  12     -13.951  39.157  41.907  0.00  0.00    -0.276 OA
ATOM    123  NE2 GLN A  12     -14.592  37.288  40.852  0.00  0.00    -0.329 N 
ATOM    124 HE21 GLN A  12     -15.499  37.317  41.307  0.00  0.00    +0.145 HD
ATOM    125 HE22 GLN A  12     -14.378  36.527  40.215  0.00  0.00    +0.145 HD
ENDBRANCH 120 121
ENDBRANCH 119 120
ENDBRANCH  11 119
ENDBRANCH   8  11
ENDBRANCH   6   7
BRANCH   6 126
ATOM    126  CB  SER A  11      -8.048  35.833  36.653  0.00  0.00    +0.187 C 
BRANCH 126 127
ATOM    127  OG  SER A  11      -6.715  35.350  36.680  0.00  0.00    -0.393 OA
ATOM    128  H   SER A  11      -6.696  34.403  36.383  0.00  0.00    +0.209 HD
ENDBRANCH 126 127
ENDBRANCH   6 126
ENDBRANCH   3   6
ENDBRANCH   1   2
BRANCH   1 131
ATOM    129  C   LYS A   9      -7.383  36.302  42.661  0.00  0.00    +0.234 C 
ATOM    130  O   LYS A   9      -7.075  37.438  43.005  0.00  0.00    -0.274 OA
ATOM    131  N   HIS A  10      -6.895  35.711  41.572  0.00  0.00    -0.302 N 
ATOM    132  H   HIS A  10      -7.161  34.779  41.271  0.00  0.00    +0.150 HD
BRANCH 129 133
ATOM    133  CA  LYS A   9      -8.295  35.478  43.536  0.00  0.00    +0.159 C 
BRANCH 133 135
ATOM    134  C   LYS A   8     -10.415  35.234  42.301  0.00  0.00    +0.234 C 
ATOM    135  N   LYS A   9      -9.301  34.704  42.802  0.00  0.00    -0.302 N 
ATOM    136  H   LYS A   9      -9.076  33.717  42.726  0.00  0.00    +0.150 HD
ATOM    137  O   LYS A   8     -10.675  36.420  42.400  0.00  0.00    -0.274 OA
BRANCH 134 138
ATOM    138  CA  LYS A   8     -11.423  34.282  41.635  0.00  0.00    +0.159 C 
BRANCH 138 140
ATOM    139  C   VAL A   7      -9.961  33.517  39.803  0.00  0.00    +0.234 C 
ATOM    140  N   LYS A   8     -10.741  33.239  40.858  0.00  0.00    -0.302 N 
ATOM    141  H   LYS A   8     -10.927  32.297  41.189  0.00  0.00    +0.150 HD
ATOM    142  O   VAL A   7      -9.739  34.671  39.409  0.00  0.00    -0.274 OA
BRANCH 139 143
ATOM    143  CA  VAL A   7      -9.253  32.342  39.137  0.00  0.00    +0.161 C 
BRANCH 143 146
ATOM    144  C   ILE A   6      -7.791  31.782  41.012  0.00  0.00    +0.234 C 
ATOM    145  O   ILE A   6      -7.343  32.941  41.081  0.00  0.00    -0.274 OA
ATOM    146  N   VAL A   7      -8.722  31.415  40.135  0.00  0.00    -0.302 N 
ATOM    147  H   VAL A   7      -9.147  30.494  40.125  0.00  0.00    +0.150 HD
BRANCH 144 148
ATOM    148  CA  ILE A   6      -7.280  30.686  41.946  0.00  0.00    +0.162 C 
BRANCH 148 151
ATOM    149  C   GLU A   5      -9.222  30.533  43.440  0.00  0.00    +0.234 C 
ATOM    150  O   GLU A   5      -9.169  31.733  43.707  0.00  0.00    -0.274 OA
ATOM    151  N   ILE A   6      -8.377  29.947  42.589  0.00  0.00    -0.302 N 
ATOM    152  H   ILE A   6      -8.448  28.973  42.313  0.00  0.00    +0.150 HD
BRANCH 149 153
ATOM    153  CA  GLU A   5     -10.316  29.637  44.068  0.00  0.00    +0.159 C 
BRANCH 153 155
ATOM    154  C   LYS A   4     -11.532  29.338  41.961  0.00  0.00    +0.234 C 
ATOM    155  N   GLU A   5     -10.944  28.811  43.045  0.00  0.00    -0.302 N 
ATOM    156  H   GLU A   5     -10.925  27.818  43.253  0.00  0.00    +0.150 HD
ATOM    157  O   LYS A   4     -11.618  30.556  41.761  0.00  0.00    -0.274 OA
BRANCH 154 158
ATOM    158  CA  LYS A   4     -12.120  28.348  40.961  0.00  0.00    +0.159 C 
BRANCH 158 160
ATOM    159  C   ILE A   3      -9.987  27.423  40.164  0.00  0.00    +0.234 C 
ATOM    160  N   LYS A   4     -11.210  27.226  40.677  0.00  0.00    -0.302 N 
ATOM    161  H   LYS A   4     -11.601  26.311  40.871  0.00  0.00    +0.150 HD
ATOM    162  O   ILE A   3      -9.540  28.547  39.896  0.00  0.00    -0.274 OA
BRANCH 159 163
ATOM    163  CA  ILE A   3      -9.128  26.180  39.931  0.00  0.00    +0.162 C 
BRANCH 163 166
ATOM    164  C   ARG A   2      -8.771  25.701  42.304  0.00  0.00    +0.234 C 
ATOM    165  O   ARG A   2      -8.310  26.836  42.494  0.00  0.00    -0.274 OA
ATOM    166  N   ILE A   3      -9.214  25.292  41.099  0.00  0.00    -0.302 N 
ATOM    167  H   ILE A   3      -9.645  24.392  40.916  0.00  0.00    +0.150 HD
BRANCH 164 168
ATOM    168  CA  ARG A   2      -8.901  24.726  43.481  0.00  0.00    +0.159 C 
BRANCH 168 171
ATOM    169  C   ARG A   1     -11.326  24.760  43.747  0.00  0.00    +0.234 C 
ATOM    170  O   ARG A   1     -11.342  25.965  43.987  0.00  0.00    -0.274 OA
ATOM    171  N   ARG A   2     -10.204  24.085  43.465  0.00  0.00    -0.302 N 
ATOM    172  H   ARG A   2     -10.172  23.100  43.222  0.00  0.00    +0.150 HD
BRANCH 169 173
ATOM    173  CA  ARG A   1     -12.642  23.990  43.649  0.00  0.00    +0.159 C 
BRANCH 173 175
ATOM    174  C   UNK A   0     -12.572  23.334  41.268  0.00  0.00    +0.217 C 
ATOM    175  N   ARG A   1     -12.629  22.990  42.574  0.00  0.00    -0.304 N 
ATOM    176  H   ARG A   1     -12.676  22.027  42.887  0.00  0.00    +0.149 HD
ATOM    177  O   UNK A   0     -12.460  24.499  40.893  0.00  0.00    -0.275 OA
BRANCH 174 178
ATOM    178  C   UNK A   0     -12.608  22.195  40.218  0.00  0.00    +0.087 C 
BRANCH 178 179
ATOM    179  C   UNK A   0     -14.050  21.658  40.061  0.00  0.00    +0.025 C 
BRANCH 179 180
ATOM    180  C   UNK A   0     -15.122  22.713  39.853  0.00  0.00    +0.126 C 
BRANCH 180 181
ATOM    181  C   UNK A   0     -16.508  22.172  39.535  0.00  0.00    +0.356 C 
ATOM    182  O   UNK A   0     -16.764  20.969  39.781  0.00  0.00    -0.246 OA
ATOM    183  O   UNK A   0     -17.355  22.972  39.075  0.00  0.00    -0.246 OA
ENDBRANCH 180 181
ENDBRANCH 179 180
ENDBRANCH 178 179
ENDBRANCH 174 178
ENDBRANCH 173 175
BRANCH 173 184
ATOM    184  CB  ARG A   1     -13.050  23.370  45.004  0.00  0.00    +0.035 C 
BRANCH 184 185
ATOM    185  CG  ARG A   1     -12.081  22.352  45.569  0.00  0.00    +0.039 C 
BRANCH 185 186
ATOM    186  CD  ARG A   1     -12.686  21.681  46.789  0.00  0.00    +0.196 C 
BRANCH 186 187
ATOM    187  NE  ARG A   1     -11.761  20.720  47.391  0.00  0.00    -0.279 N 
ATOM    188  CZ  ARG A   1     -11.935  20.131  48.573  0.00  0.00    +0.341 C 
ATOM    189  NH2 ARG A   1     -13.012  20.397  49.308  0.00  0.00    -0.292 N 
ATOM    190 HH21 ARG A   1     -13.128  19.934  50.204  0.00  0.00    +0.255 HD
ATOM    191 HH22 ARG A   1     -13.738  21.036  49.001  0.00  0.00    +0.255 HD
ATOM    192  NH1 ARG A   1     -11.029  19.276  49.033  0.00  0.00    -0.292 N 
ATOM    193 HH11 ARG A   1     -11.159  18.823  49.932  0.00  0.00    +0.255 HD
ATOM    194 HH12 ARG A   1     -10.202  19.064  48.484  0.00  0.00    +0.255 HD
ATOM    195  HE  ARG A   1     -10.923  20.492  46.865  0.00  0.00    +0.258 HD
ENDBRANCH 186 187
ENDBRANCH 185 186
ENDBRANCH 184 185
ENDBRANCH 173 184
ENDBRANCH 169 173
ENDBRANCH 168 171
BRANCH 168 196
ATOM    196  CB  ARG A   2      -7.800  23.663  43.477  0.00  0.00    +0.035 C 
BRANCH 196 197
ATOM    197  CG  ARG A   2      -6.377  24.194  43.595  0.00  0.00    +0.039 C 
BRANCH 197 198
ATOM    198  CD  ARG A   2      -6.129  24.841  44.939  0.00  0.00    +0.196 C 
BRANCH 198 199
ATOM    199  NE  ARG A   2      -4.704  25.171  45.097  0.00  0.00    -0.279 N 
ATOM    200  CZ  ARG A   2      -4.189  26.383  45.301  0.00  0.00    +0.341 C 
ATOM    201  NH2 ARG A   2      -4.981  27.440  45.436  0.00  0.00    -0.292 N 
ATOM    202 HH21 ARG A   2      -4.563  28.345  45.623  0.00  0.00    +0.255 HD
ATOM    203 HH22 ARG A   2      -5.993  27.395  45.382  0.00  0.00    +0.255 HD
ATOM    204  NH1 ARG A   2      -2.874  26.542  45.403  0.00  0.00    -0.292 N 
ATOM    205 HH11 ARG A   2      -2.492  27.462  45.596  0.00  0.00    +0.255 HD
ATOM    206 HH12 ARG A   2      -2.247  25.749  45.304  0.00  0.00    +0.255 HD
ATOM    207  HE  ARG A   2      -4.052  24.403  44.982  0.00  0.00    +0.258 HD
ENDBRANCH 198 199
ENDBRANCH 197 198
ENDBRANCH 196 197
ENDBRANCH 168 196
ENDBRANCH 164 168
ENDBRANCH 163 166
BRANCH 163 208
ATOM    208  CB  ILE A   3      -9.507  25.433  38.633  0.00  0.00    +0.015 C 
ATOM    209  CG2 ILE A   3      -9.565  26.417  37.453  0.00  0.00    +0.010 C 
BRANCH 208 210
ATOM    210  CG1 ILE A   3      -8.491  24.290  38.332  0.00  0.00    +0.002 C 
ATOM    211  CD1 ILE A   3      -9.056  23.182  37.392  0.00  0.00    +0.004 C 
ENDBRANCH 208 210
ENDBRANCH 163 208
ENDBRANCH 159 163
ENDBRANCH 158 160
BRANCH 158 212
ATOM    212  CB  LYS A   4     -13.456  27.824  41.480  0.00  0.00    +0.032 C 
BRANCH 212 213
ATOM    213  CG  LYS A   4     -14.316  27.233  40.388  0.00  0.00    +0.000 C 
BRANCH 213 214
ATOM    214  CD  LYS A   4     -15.601  26.657  40.971  0.00  0.00    -0.019 C 
BRANCH 214 215
ATOM    215  CE  LYS A   4     -16.590  26.317  39.886  0.00  0.00    -0.086 C 
BRANCH 215 216
ATOM    216  NZ  LYS A   4     -17.880  25.823  40.438  0.00  0.00    +0.378 N 
ATOM    217  HZ1 LYS A   4     -17.716  25.037  41.059  0.00  0.00    -0.090 HD
ATOM    218  HZ2 LYS A   4     -18.341  26.564  40.957  0.00  0.00    -0.090 HD
ATOM    219  HZ3 LYS A   4     -18.491  25.527  39.683  0.00  0.00    -0.090 HD
ENDBRANCH 215 216
ENDBRANCH 214 215
ENDBRANCH 213 214
ENDBRANCH 212 213
ENDBRANCH 158 212
ENDBRANCH 154 158
ENDBRANCH 153 155
BRANCH 153 220
ATOM    220  CB  GLU A   5      -9.714  28.740  45.144  0.00  0.00    +0.043 C 
BRANCH 220 221
ATOM    221  CG  GLU A   5      -8.982  29.512  46.234  0.00  0.00    +0.127 C 
BRANCH 221 222
ATOM    222  CD  GLU A   5      -8.222  28.606  47.179  0.00  0.00    +0.356 C 
ATOM    223  OE2 GLU A   5      -8.169  28.918  48.390  0.00  0.00    -0.246 OA
ATOM    224  OE1 GLU A   5      -7.591  27.644  46.688  0.00  0.00    -0.246 OA
ENDBRANCH 221 222
ENDBRANCH 220 221
ENDBRANCH 153 220
ENDBRANCH 149 153
ENDBRANCH 148 151
BRANCH 148 225
ATOM    225  CB  ILE A   6      -6.332  29.693  41.227  0.00  0.00    +0.015 C 
ATOM    226  CG2 ILE A   6      -5.262  30.399  40.390  0.00  0.00    +0.010 C 
BRANCH 225 227
ATOM    227  CG1 ILE A   6      -5.649  28.742  42.249  0.00  0.00    +0.002 C 
ATOM    228  CD1 ILE A   6      -5.093  27.499  41.586  0.00  0.00    +0.004 C 
ENDBRANCH 225 227
ENDBRANCH 148 225
ENDBRANCH 144 148
ENDBRANCH 143 146
BRANCH 143 229
ATOM    229  CB  VAL A   7     -10.132  31.586  38.116  0.00  0.00    +0.012 C 
ATOM    230  CG2 VAL A   7      -9.275  30.637  37.275  0.00  0.00    +0.009 C 
ATOM    231  CG1 VAL A   7     -10.907  32.550  37.223  0.00  0.00    +0.009 C 
ENDBRANCH 143 229
ENDBRANCH 139 143
ENDBRANCH 138 140
BRANCH 138 232
ATOM    232  CB  LYS A   8     -12.299  33.631  42.725  0.00  0.00    +0.032 C 
BRANCH 232 233
ATOM    233  CG  LYS A   8     -13.126  34.618  43.538  0.00  0.00    +0.000 C 
BRANCH 233 234
ATOM    234  CD  LYS A   8     -14.203  33.921  44.372  0.00  0.00    -0.019 C 
BRANCH 234 235
ATOM    235  CE  LYS A   8     -15.272  34.878  44.867  0.00  0.00    -0.086 C 
BRANCH 235 236
ATOM    236  NZ  LYS A   8     -16.589  34.201  45.057  0.00  0.00    +0.378 N 
ATOM    237  HZ1 LYS A   8     -16.507  33.458  45.743  0.00  0.00    -0.090 HD
ATOM    238  HZ2 LYS A   8     -17.276  34.874  45.382  0.00  0.00    -0.090 HD
ATOM    239  HZ3 LYS A   8     -16.910  33.806  44.179  0.00  0.00    -0.090 HD
ENDBRANCH 235 236
ENDBRANCH 234 235
ENDBRANCH 233 234
ENDBRANCH 232 233
ENDBRANCH 138 232
ENDBRANCH 134 138
ENDBRANCH 133 135
BRANCH 133 240
ATOM    240  CB  LYS A   9      -7.467  34.506  44.384  0.00  0.00    +0.032 C 
BRANCH 240 241
ATOM    241  CG  LYS A   9      -6.259  35.078  45.112  0.00  0.00    +0.000 C 
BRANCH 241 242
ATOM    242  CD  LYS A   9      -5.835  34.142  46.242  0.00  0.00    -0.019 C 
BRANCH 242 243
ATOM    243  CE  LYS A   9      -5.773  32.691  45.816  0.00  0.00    -0.086 C 
BRANCH 243 244
ATOM    244  NZ  LYS A   9      -5.089  31.839  46.817  0.00  0.00    +0.378 N 
ATOM    245  HZ1 LYS A   9      -5.654  31.780  47.658  0.00  0.00    -0.090 HD
ATOM    246  HZ2 LYS A   9      -4.184  32.232  47.055  0.00  0.00    -0.090 HD
ATOM    247  HZ3 LYS A   9      -4.960  30.903  46.448  0.00  0.00    -0.090 HD
ENDBRANCH 243 244
ENDBRANCH 242 243
ENDBRANCH 241 242
ENDBRANCH 240 241
ENDBRANCH 133 240
ENDBRANCH 129 133
ENDBRANCH   1 131
BRANCH   1 248
ATOM    248  CB  HIS A  10      -4.835  35.313  40.322  0.00  0.00    +0.088 C 
BRANCH 248 249
ATOM    249  CG  HIS A  10      -4.011  34.787  41.462  0.00  0.00    +0.061 A 
ATOM    250  CD2 HIS A  10      -4.190  33.686  42.231  0.00  0.00    +0.107 A 
ATOM    251  NE2 HIS A  10      -3.115  33.621  43.084  0.00  0.00    -0.351 N 
ATOM    252  HE2 HIS A  10      -2.972  32.944  43.826  0.00  0.00    +0.166 HD
ATOM    253  CE1 HIS A  10      -2.303  34.631  42.779  0.00  0.00    +0.196 A 
ATOM    254  ND1 HIS A  10      -2.804  35.373  41.805  0.00  0.00    -0.241 NA
ENDBRANCH 248 249
ENDBRANCH   1 248
TORSDOF 106
REMARK  Name = /Users/mlugowska/PhD/ML_residence_time_prediction/protein_files/5J20_protein.pdb
REMARK  961 active torsions:
REMARK  status: ('A' for Active; 'I' for Inactive)
REMARK    1  A    between atoms: _2  and  _3
REMARK    2  A    between atoms: _2  and  _5
REMARK    3  A    between atoms: _10  and  _11
REMARK    4  A    between atoms: _11  and  _12
REMARK    5  A    between atoms: _11  and  _14
REMARK    6  A    between atoms: _14  and  _15
REMARK    7  A    between atoms: _14  and  _16
REMARK    8  A    between atoms: _26  and  _27
REMARK    9  A    between atoms: _27  and  _28
REMARK   10  A    between atoms: _27  and  _30
REMARK   11  A    between atoms: _30  and  _31
REMARK   12  A    between atoms: _31  and  _32
REMARK   13  A    between atoms: _41  and  _42
REMARK   14  A    between atoms: _42  and  _43
REMARK   15  A    between atoms: _42  and  _45
REMARK   16  A    between atoms: _45  and  _46
REMARK   17  A    between atoms: _45  and  _47
REMARK   18  A    between atoms: _55  and  _56
REMARK   19  A    between atoms: _56  and  _57
REMARK   20  A    between atoms: _56  and  _59
REMARK   21  A    between atoms: _59  and  _60
REMARK   22  A    between atoms: _75  and  _76
REMARK   23  A    between atoms: _76  and  _77
REMARK   24  A    between atoms: _76  and  _79
REMARK   25  A    between atoms: _85  and  _86
REMARK   26  A    between atoms: _86  and  _87
REMARK   27  A    between atoms: _86  and  _89
REMARK   28  A    between atoms: _89  and  _90
REMARK   29  A    between atoms: _105  and  _106
REMARK   30  A    between atoms: _106  and  _107
REMARK   31  A    between atoms: _106  and  _109
REMARK   32  A    between atoms: _109  and  _110
REMARK   33  A    between atoms: _110  and  _111
REMARK   34  A    between atoms: _122  and  _123
REMARK   35  A    between atoms: _123  and  _124
REMARK   36  A    between atoms: _123  and  _126
REMARK   37  A    between atoms: _132  and  _133
REMARK   38  A    between atoms: _133  and  _134
REMARK   39  A    between atoms: _133  and  _136
REMARK   40  A    between atoms: _136  and  _137
REMARK   41  A    between atoms: _137  and  _138
REMARK   42  A    between atoms: _147  and  _148
REMARK   43  A    between atoms: _148  and  _149
REMARK   44  A    between atoms: _148  and  _151
REMARK   45  A    between atoms: _151  and  _152
REMARK   46  A    between atoms: _151  and  _153
REMARK   47  A    between atoms: _152  and  _154
REMARK   48  A    between atoms: _166  and  _167
REMARK   49  A    between atoms: _167  and  _168
REMARK   50  A    between atoms: _167  and  _170
REMARK   51  A    between atoms: _176  and  _177
REMARK   52  A    between atoms: _177  and  _178
REMARK   53  A    between atoms: _177  and  _180
REMARK   54  A    between atoms: _180  and  _181
REMARK   55  A    between atoms: _181  and  _182
REMARK   56  A    between atoms: _193  and  _194
REMARK   57  A    between atoms: _194  and  _195
REMARK   58  A    between atoms: _194  and  _197
REMARK   59  A    between atoms: _197  and  _198
REMARK   60  A    between atoms: _198  and  _199
REMARK   61  A    between atoms: _198  and  _200
REMARK   62  A    between atoms: _212  and  _213
REMARK   63  A    between atoms: _213  and  _214
REMARK   64  A    between atoms: _213  and  _216
REMARK   65  A    between atoms: _216  and  _217
REMARK   66  A    between atoms: _217  and  _218
REMARK   67  A    between atoms: _218  and  _219
REMARK   68  A    between atoms: _229  and  _230
REMARK   69  A    between atoms: _230  and  _231
REMARK   70  A    between atoms: _230  and  _233
REMARK   71  A    between atoms: _233  and  _234
REMARK   72  A    between atoms: _240  and  _241
REMARK   73  A    between atoms: _241  and  _242
REMARK   74  A    between atoms: _241  and  _244
REMARK   75  A    between atoms: _244  and  _245
REMARK   76  A    between atoms: _245  and  _246
REMARK   77  A    between atoms: _245  and  _247
REMARK   78  A    between atoms: _259  and  _260
REMARK   79  A    between atoms: _260  and  _261
REMARK   80  A    between atoms: _260  and  _263
REMARK   81  A    between atoms: _263  and  _264
REMARK   82  A    between atoms: _263  and  _265
REMARK   83  A    between atoms: _264  and  _266
REMARK   84  A    between atoms: _278  and  _279
REMARK   85  A    between atoms: _279  and  _280
REMARK   86  A    between atoms: _279  and  _282
REMARK   87  A    between atoms: _282  and  _283
REMARK   88  A    between atoms: _282  and  _284
REMARK   89  A    between atoms: _283  and  _285
REMARK   90  A    between atoms: _297  and  _298
REMARK   91  A    between atoms: _298  and  _299
REMARK   92  A    between atoms: _298  and  _301
REMARK   93  A    between atoms: _301  and  _302
REMARK   94  A    between atoms: _311  and  _312
REMARK   95  A    between atoms: _312  and  _313
REMARK   96  A    between atoms: _312  and  _315
REMARK   97  A    between atoms: _315  and  _316
REMARK   98  A    between atoms: _315  and  _317
REMARK   99  A    between atoms: _325  and  _326
REMARK  100  A    between atoms: _326  and  _327
REMARK  101  A    between atoms: _326  and  _329
REMARK  102  A    between atoms: _329  and  _330
REMARK  103  A    between atoms: _345  and  _346
REMARK  104  A    between atoms: _346  and  _347
REMARK  105  A    between atoms: _346  and  _349
REMARK  106  A    between atoms: _349  and  _350
REMARK  107  A    between atoms: _355  and  _356
REMARK  108  A    between atoms: _366  and  _367
REMARK  109  A    between atoms: _367  and  _368
REMARK  110  A    between atoms: _367  and  _370
REMARK  111  A    between atoms: _370  and  _371
REMARK  112  A    between atoms: _377  and  _378
REMARK  113  A    between atoms: _378  and  _379
REMARK  114  A    between atoms: _378  and  _381
REMARK  115  A    between atoms: _381  and  _382
REMARK  116  A    between atoms: _391  and  _392
REMARK  117  A    between atoms: _392  and  _393
REMARK  118  A    between atoms: _392  and  _395
REMARK  119  A    between atoms: _395  and  _396
REMARK  120  A    between atoms: _396  and  _397
REMARK  121  A    between atoms: _397  and  _398
REMARK  122  A    between atoms: _398  and  _399
REMARK  123  A    between atoms: _413  and  _414
REMARK  124  A    between atoms: _414  and  _415
REMARK  125  A    between atoms: _414  and  _417
REMARK  126  A    between atoms: _417  and  _418
REMARK  127  A    between atoms: _418  and  _419
REMARK  128  A    between atoms: _428  and  _429
REMARK  129  A    between atoms: _429  and  _430
REMARK  130  A    between atoms: _429  and  _432
REMARK  131  A    between atoms: _432  and  _433
REMARK  132  A    between atoms: _432  and  _434
REMARK  133  A    between atoms: _433  and  _435
REMARK  134  A    between atoms: _447  and  _448
REMARK  135  A    between atoms: _448  and  _449
REMARK  136  A    between atoms: _448  and  _451
REMARK  137  A    between atoms: _451  and  _452
REMARK  138  A    between atoms: _467  and  _468
REMARK  139  A    between atoms: _468  and  _469
REMARK  140  A    between atoms: _468  and  _471
REMARK  141  A    between atoms: _471  and  _472
REMARK  142  A    between atoms: _472  and  _473
REMARK  143  A    between atoms: _472  and  _474
REMARK  144  A    between atoms: _486  and  _487
REMARK  145  A    between atoms: _487  and  _488
REMARK  146  A    between atoms: _487  and  _490
REMARK  147  A    between atoms: _490  and  _491
REMARK  148  A    between atoms: _491  and  _492
REMARK  149  A    between atoms: _492  and  _493
REMARK  150  A    between atoms: _510  and  _511
REMARK  151  A    between atoms: _511  and  _512
REMARK  152  A    between atoms: _511  and  _514
REMARK  153  A    between atoms: _514  and  _515
REMARK  154  A    between atoms: _515  and  _516
REMARK  155  A    between atoms: _525  and  _526
REMARK  156  A    between atoms: _526  and  _527
REMARK  157  A    between atoms: _526  and  _529
REMARK  158  A    between atoms: _529  and  _530
REMARK  159  A    between atoms: _530  and  _531
REMARK  160  A    between atoms: _530  and  _532
REMARK  161  A    between atoms: _544  and  _545
REMARK  162  A    between atoms: _545  and  _546
REMARK  163  A    between atoms: _545  and  _548
REMARK  164  A    between atoms: _548  and  _549
REMARK  165  A    between atoms: _548  and  _550
REMARK  166  A    between atoms: _549  and  _551
REMARK  167  A    between atoms: _563  and  _564
REMARK  168  A    between atoms: _564  and  _565
REMARK  169  A    between atoms: _564  and  _567
REMARK  170  A    between atoms: _567  and  _568
REMARK  171  A    between atoms: _574  and  _575
REMARK  172  A    between atoms: _575  and  _576
REMARK  173  A    between atoms: _575  and  _578
REMARK  174  A    between atoms: _578  and  _579
REMARK  175  A    between atoms: _588  and  _589
REMARK  176  A    between atoms: _589  and  _590
REMARK  177  A    between atoms: _589  and  _592
REMARK  178  A    between atoms: _592  and  _593
REMARK  179  A    between atoms: _599  and  _600
REMARK  180  A    between atoms: _600  and  _601
REMARK  181  A    between atoms: _600  and  _603
REMARK  182  A    between atoms: _603  and  _604
REMARK  183  A    between atoms: _610  and  _611
REMARK  184  A    between atoms: _611  and  _612
REMARK  185  A    between atoms: _611  and  _614
REMARK  186  A    between atoms: _614  and  _615
REMARK  187  A    between atoms: _622  and  _623
REMARK  188  A    between atoms: _623  and  _624
REMARK  189  A    between atoms: _623  and  _626
REMARK  190  A    between atoms: _632  and  _633
REMARK  191  A    between atoms: _633  and  _634
REMARK  192  A    between atoms: _633  and  _636
REMARK  193  A    between atoms: _636  and  _637
REMARK  194  A    between atoms: _637  and  _638
REMARK  195  A    between atoms: _637  and  _639
REMARK  196  A    between atoms: _651  and  _652
REMARK  197  A    between atoms: _652  and  _653
REMARK  198  A    between atoms: _652  and  _655
REMARK  199  A    between atoms: _655  and  _656
REMARK  200  A    between atoms: _663  and  _664
REMARK  201  A    between atoms: _664  and  _665
REMARK  202  A    between atoms: _664  and  _667
REMARK  203  A    between atoms: _667  and  _668
REMARK  204  A    between atoms: _668  and  _669
REMARK  205  A    between atoms: _669  and  _670
REMARK  206  A    between atoms: _670  and  _671
REMARK  207  A    between atoms: _685  and  _686
REMARK  208  A    between atoms: _686  and  _687
REMARK  209  A    between atoms: _686  and  _689
REMARK  210  A    between atoms: _689  and  _690
REMARK  211  A    between atoms: _689  and  _691
REMARK  212  A    between atoms: _690  and  _692
REMARK  213  A    between atoms: _704  and  _705
REMARK  214  A    between atoms: _705  and  _706
REMARK  215  A    between atoms: _705  and  _708
REMARK  216  A    between atoms: _708  and  _709
REMARK  217  A    between atoms: _709  and  _710
REMARK  218  A    between atoms: _710  and  _711
REMARK  219  A    between atoms: _728  and  _729
REMARK  220  A    between atoms: _729  and  _730
REMARK  221  A    between atoms: _729  and  _732
REMARK  222  A    between atoms: _732  and  _733
REMARK  223  A    between atoms: _738  and  _739
REMARK  224  A    between atoms: _749  and  _750
REMARK  225  A    between atoms: _750  and  _751
REMARK  226  A    between atoms: _750  and  _753
REMARK  227  A    between atoms: _753  and  _754
REMARK  228  A    between atoms: _754  and  _755
REMARK  229  A    between atoms: _764  and  _765
REMARK  230  A    between atoms: _765  and  _766
REMARK  231  A    between atoms: _765  and  _768
REMARK  232  A    between atoms: _772  and  _773
REMARK  233  A    between atoms: _773  and  _774
REMARK  234  A    between atoms: _773  and  _776
REMARK  235  A    between atoms: _776  and  _777
REMARK  236  A    between atoms: _777  and  _778
REMARK  237  A    between atoms: _777  and  _779
REMARK  238  A    between atoms: _791  and  _792
REMARK  239  A    between atoms: _792  and  _793
REMARK  240  A    between atoms: _792  and  _795
REMARK  241  A    between atoms: _795  and  _796
REMARK  242  A    between atoms: _795  and  _797
REMARK  243  A    between atoms: _805  and  _806
REMARK  244  A    between atoms: _806  and  _807
REMARK  245  A    between atoms: _806  and  _809
REMARK  246  A    between atoms: _809  and  _810
REMARK  247  A    between atoms: _818  and  _819
REMARK  248  A    between atoms: _831  and  _832
REMARK  249  A    between atoms: _832  and  _833
REMARK  250  A    between atoms: _832  and  _835
REMARK  251  A    between atoms: _835  and  _836
REMARK  252  A    between atoms: _842  and  _843
REMARK  253  A    between atoms: _843  and  _844
REMARK  254  A    between atoms: _843  and  _846
REMARK  255  A    between atoms: _846  and  _847
REMARK  256  A    between atoms: _847  and  _848
REMARK  257  A    between atoms: _848  and  _849
REMARK  258  A    between atoms: _849  and  _850
REMARK  259  A    between atoms: _864  and  _865
REMARK  260  A    between atoms: _865  and  _866
REMARK  261  A    between atoms: _865  and  _868
REMARK  262  A    between atoms: _868  and  _869
REMARK  263  A    between atoms: _869  and  _870
REMARK  264  A    between atoms: _869  and  _871
REMARK  265  A    between atoms: _883  and  _884
REMARK  266  A    between atoms: _884  and  _885
REMARK  267  A    between atoms: _884  and  _887
REMARK  268  A    between atoms: _887  and  _888
REMARK  269  A    between atoms: _895  and  _896
REMARK  270  A    between atoms: _896  and  _897
REMARK  271  A    between atoms: _896  and  _899
REMARK  272  A    between atoms: _899  and  _900
REMARK  273  A    between atoms: _906  and  _907
REMARK  274  A    between atoms: _907  and  _908
REMARK  275  A    between atoms: _913  and  _914
REMARK  276  A    between atoms: _914  and  _915
REMARK  277  A    between atoms: _914  and  _917
REMARK  278  A    between atoms: _917  and  _918
REMARK  279  A    between atoms: _918  and  _919
REMARK  280  A    between atoms: _919  and  _920
REMARK  281  A    between atoms: _920  and  _921
REMARK  282  A    between atoms: _935  and  _936
REMARK  283  A    between atoms: _936  and  _937
REMARK  284  A    between atoms: _936  and  _939
REMARK  285  A    between atoms: _939  and  _940
REMARK  286  A    between atoms: _940  and  _941
REMARK  287  A    between atoms: _950  and  _951
REMARK  288  A    between atoms: _951  and  _952
REMARK  289  A    between atoms: _951  and  _954
REMARK  290  A    between atoms: _954  and  _955
REMARK  291  A    between atoms: _955  and  _956
REMARK  292  A    between atoms: _955  and  _957
REMARK  293  A    between atoms: _969  and  _970
REMARK  294  A    between atoms: _970  and  _971
REMARK  295  A    between atoms: _970  and  _973
REMARK  296  A    between atoms: _973  and  _974
REMARK  297  A    between atoms: _986  and  _987
REMARK  298  A    between atoms: _987  and  _988
REMARK  299  A    between atoms: _987  and  _990
REMARK  300  A    between atoms: _990  and  _991
REMARK  301  A    between atoms: _990  and  _992
REMARK  302  A    between atoms: _991  and  _993
REMARK  303  A    between atoms: _1005  and  _1006
REMARK  304  A    between atoms: _1006  and  _1007
REMARK  305  A    between atoms: _1006  and  _1009
REMARK  306  A    between atoms: _1009  and  _1010
REMARK  307  A    between atoms: _1019  and  _1020
REMARK  308  A    between atoms: _1020  and  _1021
REMARK  309  A    between atoms: _1020  and  _1023
REMARK  310  A    between atoms: _1023  and  _1024
REMARK  311  A    between atoms: _1024  and  _1025
REMARK  312  A    between atoms: _1024  and  _1026
REMARK  313  A    between atoms: _1038  and  _1039
REMARK  314  A    between atoms: _1039  and  _1040
REMARK  315  A    between atoms: _1039  and  _1042
REMARK  316  A    between atoms: _1042  and  _1043
REMARK  317  A    between atoms: _1042  and  _1044
REMARK  318  A    between atoms: _1043  and  _1045
REMARK  319  A    between atoms: _1058  and  _1059
REMARK  320  A    between atoms: _1071  and  _1072
REMARK  321  A    between atoms: _1072  and  _1073
REMARK  322  A    between atoms: _1072  and  _1075
REMARK  323  A    between atoms: _1075  and  _1076
REMARK  324  A    between atoms: _1085  and  _1086
REMARK  325  A    between atoms: _1086  and  _1087
REMARK  326  A    between atoms: _1086  and  _1089
REMARK  327  A    between atoms: _1089  and  _1090
REMARK  328  A    between atoms: _1090  and  _1091
REMARK  329  A    between atoms: _1091  and  _1092
REMARK  330  A    between atoms: _1092  and  _1093
REMARK  331  A    between atoms: _1107  and  _1108
REMARK  332  A    between atoms: _1108  and  _1109
REMARK  333  A    between atoms: _1108  and  _1111
REMARK  334  A    between atoms: _1111  and  _1112
REMARK  335  A    between atoms: _1112  and  _1113
REMARK  336  A    between atoms: _1124  and  _1125
REMARK  337  A    between atoms: _1125  and  _1126
REMARK  338  A    between atoms: _1125  and  _1128
REMARK  339  A    between atoms: _1128  and  _1129
REMARK  340  A    between atoms: _1136  and  _1137
REMARK  341  A    between atoms: _1137  and  _1138
REMARK  342  A    between atoms: _1137  and  _1140
REMARK  343  A    between atoms: _1140  and  _1141
REMARK  344  A    between atoms: _1141  and  _1142
REMARK  345  A    between atoms: _1142  and  _1143
REMARK  346  A    between atoms: _1160  and  _1161
REMARK  347  A    between atoms: _1161  and  _1162
REMARK  348  A    between atoms: _1161  and  _1164
REMARK  349  A    between atoms: _1164  and  _1165
REMARK  350  A    between atoms: _1164  and  _1166
REMARK  351  A    between atoms: _1174  and  _1175
REMARK  352  A    between atoms: _1175  and  _1176
REMARK  353  A    between atoms: _1175  and  _1178
REMARK  354  A    between atoms: _1178  and  _1179
REMARK  355  A    between atoms: _1179  and  _1180
REMARK  356  A    between atoms: _1179  and  _1181
REMARK  357  A    between atoms: _1193  and  _1194
REMARK  358  A    between atoms: _1194  and  _1195
REMARK  359  A    between atoms: _1194  and  _1197
REMARK  360  A    between atoms: _1197  and  _1198
REMARK  361  A    between atoms: _1197  and  _1199
REMARK  362  A    between atoms: _1207  and  _1208
REMARK  363  A    between atoms: _1208  and  _1209
REMARK  364  A    between atoms: _1208  and  _1211
REMARK  365  A    between atoms: _1211  and  _1212
REMARK  366  A    between atoms: _1211  and  _1213
REMARK  367  A    between atoms: _1212  and  _1214
REMARK  368  A    between atoms: _1226  and  _1227
REMARK  369  A    between atoms: _1227  and  _1228
REMARK  370  A    between atoms: _1227  and  _1230
REMARK  371  A    between atoms: _1230  and  _1231
REMARK  372  A    between atoms: _1230  and  _1232
REMARK  373  A    between atoms: _1242  and  _1243
REMARK  374  A    between atoms: _1243  and  _1244
REMARK  375  A    between atoms: _1243  and  _1246
REMARK  376  A    between atoms: _1246  and  _1247
REMARK  377  A    between atoms: _1254  and  _1255
REMARK  378  A    between atoms: _1255  and  _1256
REMARK  379  A    between atoms: _1255  and  _1258
REMARK  380  A    between atoms: _1258  and  _1259
REMARK  381  A    between atoms: _1258  and  _1260
REMARK  382  A    between atoms: _1268  and  _1269
REMARK  383  A    between atoms: _1269  and  _1270
REMARK  384  A    between atoms: _1275  and  _1276
REMARK  385  A    between atoms: _1276  and  _1277
REMARK  386  A    between atoms: _1276  and  _1279
REMARK  387  A    between atoms: _1279  and  _1280
REMARK  388  A    between atoms: _1279  and  _1281
REMARK  389  A    between atoms: _1280  and  _1282
REMARK  390  A    between atoms: _1294  and  _1295
REMARK  391  A    between atoms: _1295  and  _1296
REMARK  392  A    between atoms: _1301  and  _1302
REMARK  393  A    between atoms: _1302  and  _1303
REMARK  394  A    between atoms: _1302  and  _1305
REMARK  395  A    between atoms: _1305  and  _1306
REMARK  396  A    between atoms: _1306  and  _1307
REMARK  397  A    between atoms: _1307  and  _1308
REMARK  398  A    between atoms: _1318  and  _1319
REMARK  399  A    between atoms: _1319  and  _1320
REMARK  400  A    between atoms: _1319  and  _1322
REMARK  401  A    between atoms: _1322  and  _1323
REMARK  402  A    between atoms: _1322  and  _1324
REMARK  403  A    between atoms: _1332  and  _1333
REMARK  404  A    between atoms: _1333  and  _1334
REMARK  405  A    between atoms: _1333  and  _1336
REMARK  406  A    between atoms: _1336  and  _1337
REMARK  407  A    between atoms: _1337  and  _1338
REMARK  408  A    between atoms: _1338  and  _1339
REMARK  409  A    between atoms: _1339  and  _1340
REMARK  410  A    between atoms: _1354  and  _1355
REMARK  411  A    between atoms: _1355  and  _1356
REMARK  412  A    between atoms: _1355  and  _1358
REMARK  413  A    between atoms: _1364  and  _1365
REMARK  414  A    between atoms: _1365  and  _1366
REMARK  415  A    between atoms: _1365  and  _1368
REMARK  416  A    between atoms: _1368  and  _1369
REMARK  417  A    between atoms: _1376  and  _1377
REMARK  418  A    between atoms: _1377  and  _1378
REMARK  419  A    between atoms: _1377  and  _1380
REMARK  420  A    between atoms: _1380  and  _1381
REMARK  421  A    between atoms: _1381  and  _1382
REMARK  422  A    between atoms: _1381  and  _1383
REMARK  423  A    between atoms: _1395  and  _1396
REMARK  424  A    between atoms: _1396  and  _1399
REMARK  425  A    between atoms: _1399  and  _1400
REMARK  426  A    between atoms: _1399  and  _1401
REMARK  427  A    between atoms: _1400  and  _1402
REMARK  428  A    between atoms: _1422  and  _1425
REMARK  429  A    between atoms: _1424  and  _1428
REMARK  430  A    between atoms: _1425  and  _1427
REMARK  431  A    between atoms: _1443  and  _1444
REMARK  432  A    between atoms: _1443  and  _1446
REMARK  433  A    between atoms: _1446  and  _1447
REMARK  434  A    between atoms: _1457  and  _1458
REMARK  435  A    between atoms: _1458  and  _1459
REMARK  436  A    between atoms: _1458  and  _1461
REMARK  437  A    between atoms: _1461  and  _1462
REMARK  438  A    between atoms: _1462  and  _1463
REMARK  439  A    between atoms: _1462  and  _1464
REMARK  440  A    between atoms: _1476  and  _1477
REMARK  441  A    between atoms: _1477  and  _1478
REMARK  442  A    between atoms: _1483  and  _1484
REMARK  443  A    between atoms: _1484  and  _1485
REMARK  444  A    between atoms: _1484  and  _1487
REMARK  445  A    between atoms: _1487  and  _1488
REMARK  446  A    between atoms: _1487  and  _1489
REMARK  447  A    between atoms: _1497  and  _1498
REMARK  448  A    between atoms: _1498  and  _1499
REMARK  449  A    between atoms: _1498  and  _1501
REMARK  450  A    between atoms: _1501  and  _1502
REMARK  451  A    between atoms: _1501  and  _1503
REMARK  452  A    between atoms: _1502  and  _1504
REMARK  453  A    between atoms: _1516  and  _1517
REMARK  454  A    between atoms: _1517  and  _1518
REMARK  455  A    between atoms: _1517  and  _1520
REMARK  456  A    between atoms: _1526  and  _1527
REMARK  457  A    between atoms: _1527  and  _1528
REMARK  458  A    between atoms: _1527  and  _1530
REMARK  459  A    between atoms: _1530  and  _1531
REMARK  460  A    between atoms: _1531  and  _1532
REMARK  461  A    between atoms: _1532  and  _1533
REMARK  462  A    between atoms: _1533  and  _1534
REMARK  463  A    between atoms: _1548  and  _1549
REMARK  464  A    between atoms: _1549  and  _1550
REMARK  465  A    between atoms: _1549  and  _1552
REMARK  466  A    between atoms: _1552  and  _1553
REMARK  467  A    between atoms: _1559  and  _1560
REMARK  468  A    between atoms: _1560  and  _1561
REMARK  469  A    between atoms: _1566  and  _1567
REMARK  470  A    between atoms: _1567  and  _1568
REMARK  471  A    between atoms: _1567  and  _1570
REMARK  472  A    between atoms: _1570  and  _1571
REMARK  473  A    between atoms: _1570  and  _1572
REMARK  474  A    between atoms: _1580  and  _1581
REMARK  475  A    between atoms: _1581  and  _1582
REMARK  476  A    between atoms: _1581  and  _1584
REMARK  477  A    between atoms: _1584  and  _1585
REMARK  478  A    between atoms: _1585  and  _1586
REMARK  479  A    between atoms: _1586  and  _1587
REMARK  480  A    between atoms: _1587  and  _1588
REMARK  481  A    between atoms: _1602  and  _1603
REMARK  482  A    between atoms: _1603  and  _1604
REMARK  483  A    between atoms: _1603  and  _1606
REMARK  484  A    between atoms: _1612  and  _1613
REMARK  485  A    between atoms: _1613  and  _1614
REMARK  486  A    between atoms: _1613  and  _1616
REMARK  487  A    between atoms: _1616  and  _1617
REMARK  488  A    between atoms: _1632  and  _1633
REMARK  489  A    between atoms: _1633  and  _1634
REMARK  490  A    between atoms: _1633  and  _1636
REMARK  491  A    between atoms: _1636  and  _1637
REMARK  492  A    between atoms: _1637  and  _1638
REMARK  493  A    between atoms: _1638  and  _1639
REMARK  494  A    between atoms: _1649  and  _1650
REMARK  495  A    between atoms: _1650  and  _1651
REMARK  496  A    between atoms: _1650  and  _1653
REMARK  497  A    between atoms: _1653  and  _1654
REMARK  498  A    between atoms: _1654  and  _1655
REMARK  499  A    between atoms: _1664  and  _1665
REMARK  500  A    between atoms: _1665  and  _1666
REMARK  501  A    between atoms: _1665  and  _1668
REMARK  502  A    between atoms: _1674  and  _1675
REMARK  503  A    between atoms: _1675  and  _1676
REMARK  504  A    between atoms: _1675  and  _1678
REMARK  505  A    between atoms: _1678  and  _1679
REMARK  506  A    between atoms: _1679  and  _1680
REMARK  507  A    between atoms: _1679  and  _1681
REMARK  508  A    between atoms: _1693  and  _1694
REMARK  509  A    between atoms: _1694  and  _1695
REMARK  510  A    between atoms: _1694  and  _1697
REMARK  511  A    between atoms: _1697  and  _1698
REMARK  512  A    between atoms: _1698  and  _1699
REMARK  513  A    between atoms: _1710  and  _1711
REMARK  514  A    between atoms: _1711  and  _1712
REMARK  515  A    between atoms: _1711  and  _1714
REMARK  516  A    between atoms: _1720  and  _1721
REMARK  517  A    between atoms: _1721  and  _1722
REMARK  518  A    between atoms: _1727  and  _1728
REMARK  519  A    between atoms: _1728  and  _1729
REMARK  520  A    between atoms: _1728  and  _1731
REMARK  521  A    between atoms: _1737  and  _1738
REMARK  522  A    between atoms: _1738  and  _1739
REMARK  523  A    between atoms: _1738  and  _1741
REMARK  524  A    between atoms: _1741  and  _1742
REMARK  525  A    between atoms: _1749  and  _1750
REMARK  526  A    between atoms: _1750  and  _1751
REMARK  527  A    between atoms: _1750  and  _1753
REMARK  528  A    between atoms: _1753  and  _1754
REMARK  529  A    between atoms: _1753  and  _1755
REMARK  530  A    between atoms: _1754  and  _1756
REMARK  531  A    between atoms: _1768  and  _1769
REMARK  532  A    between atoms: _1769  and  _1772
REMARK  533  A    between atoms: _1772  and  _1773
REMARK  534  A    between atoms: _1791  and  _1793
REMARK  535  A    between atoms: _1792  and  _1794
REMARK  536  A    between atoms: _1814  and  _1815
REMARK  537  A    between atoms: _1814  and  _1817
REMARK  538  A    between atoms: _1817  and  _1818
REMARK  539  A    between atoms: _1817  and  _1819
REMARK  540  A    between atoms: _1818  and  _1820
REMARK  541  A    between atoms: _1833  and  _1834
REMARK  542  A    between atoms: _1834  and  _1835
REMARK  543  A    between atoms: _1840  and  _1841
REMARK  544  A    between atoms: _1841  and  _1842
REMARK  545  A    between atoms: _1841  and  _1844
REMARK  546  A    between atoms: _1844  and  _1845
REMARK  547  A    between atoms: _1845  and  _1846
REMARK  548  A    between atoms: _1857  and  _1858
REMARK  549  A    between atoms: _1858  and  _1859
REMARK  550  A    between atoms: _1858  and  _1861
REMARK  551  A    between atoms: _1861  and  _1862
REMARK  552  A    between atoms: _1877  and  _1878
REMARK  553  A    between atoms: _1878  and  _1879
REMARK  554  A    between atoms: _1884  and  _1885
REMARK  555  A    between atoms: _1885  and  _1886
REMARK  556  A    between atoms: _1885  and  _1888
REMARK  557  A    between atoms: _1888  and  _1889
REMARK  558  A    between atoms: _1888  and  _1890
REMARK  559  A    between atoms: _1900  and  _1901
REMARK  560  A    between atoms: _1901  and  _1902
REMARK  561  A    between atoms: _1907  and  _1908
REMARK  562  A    between atoms: _1908  and  _1909
REMARK  563  A    between atoms: _1908  and  _1911
REMARK  564  A    between atoms: _1911  and  _1912
REMARK  565  A    between atoms: _1927  and  _1928
REMARK  566  A    between atoms: _1928  and  _1929
REMARK  567  A    between atoms: _1928  and  _1931
REMARK  568  A    between atoms: _1931  and  _1932
REMARK  569  A    between atoms: _1937  and  _1938
REMARK  570  A    between atoms: _1948  and  _1949
REMARK  571  A    between atoms: _1949  and  _1950
REMARK  572  A    between atoms: _1949  and  _1952
REMARK  573  A    between atoms: _1952  and  _1953
REMARK  574  A    between atoms: _1959  and  _1960
REMARK  575  A    between atoms: _1960  and  _1961
REMARK  576  A    between atoms: _1960  and  _1963
REMARK  577  A    between atoms: _1969  and  _1970
REMARK  578  A    between atoms: _1970  and  _1971
REMARK  579  A    between atoms: _1970  and  _1973
REMARK  580  A    between atoms: _1973  and  _1974
REMARK  581  A    between atoms: _1979  and  _1980
REMARK  582  A    between atoms: _1990  and  _1991
REMARK  583  A    between atoms: _1991  and  _1992
REMARK  584  A    between atoms: _1991  and  _1994
REMARK  585  A    between atoms: _1994  and  _1995
REMARK  586  A    between atoms: _1995  and  _1996
REMARK  587  A    between atoms: _1995  and  _1997
REMARK  588  A    between atoms: _2009  and  _2010
REMARK  589  A    between atoms: _2010  and  _2011
REMARK  590  A    between atoms: _2010  and  _2013
REMARK  591  A    between atoms: _2013  and  _2014
REMARK  592  A    between atoms: _2013  and  _2015
REMARK  593  A    between atoms: _2025  and  _2026
REMARK  594  A    between atoms: _2026  and  _2027
REMARK  595  A    between atoms: _2026  and  _2029
REMARK  596  A    between atoms: _2035  and  _2036
REMARK  597  A    between atoms: _2036  and  _2037
REMARK  598  A    between atoms: _2036  and  _2039
REMARK  599  A    between atoms: _2039  and  _2040
REMARK  600  A    between atoms: _2040  and  _2041
REMARK  601  A    between atoms: _2050  and  _2051
REMARK  602  A    between atoms: _2051  and  _2052
REMARK  603  A    between atoms: _2051  and  _2054
REMARK  604  A    between atoms: _2054  and  _2055
REMARK  605  A    between atoms: _2055  and  _2056
REMARK  606  A    between atoms: _2056  and  _2057
REMARK  607  A    between atoms: _2057  and  _2058
REMARK  608  A    between atoms: _2072  and  _2073
REMARK  609  A    between atoms: _2073  and  _2074
REMARK  610  A    between atoms: _2073  and  _2076
REMARK  611  A    between atoms: _2076  and  _2077
REMARK  612  A    between atoms: _2076  and  _2078
REMARK  613  A    between atoms: _2088  and  _2089
REMARK  614  A    between atoms: _2089  and  _2090
REMARK  615  A    between atoms: _2089  and  _2092
REMARK  616  A    between atoms: _2092  and  _2093
REMARK  617  A    between atoms: _2092  and  _2094
REMARK  618  A    between atoms: _2102  and  _2103
REMARK  619  A    between atoms: _2103  and  _2104
REMARK  620  A    between atoms: _2103  and  _2106
REMARK  621  A    between atoms: _2106  and  _2107
REMARK  622  A    between atoms: _2106  and  _2108
REMARK  623  A    between atoms: _2118  and  _2119
REMARK  624  A    between atoms: _2119  and  _2120
REMARK  625  A    between atoms: _2119  and  _2122
REMARK  626  A    between atoms: _2122  and  _2123
REMARK  627  A    between atoms: _2122  and  _2124
REMARK  628  A    between atoms: _2123  and  _2125
REMARK  629  A    between atoms: _2137  and  _2138
REMARK  630  A    between atoms: _2138  and  _2139
REMARK  631  A    between atoms: _2138  and  _2141
REMARK  632  A    between atoms: _2141  and  _2142
REMARK  633  A    between atoms: _2141  and  _2143
REMARK  634  A    between atoms: _2151  and  _2152
REMARK  635  A    between atoms: _2152  and  _2153
REMARK  636  A    between atoms: _2152  and  _2155
REMARK  637  A    between atoms: _2155  and  _2156
REMARK  638  A    between atoms: _2156  and  _2157
REMARK  639  A    between atoms: _2157  and  _2158
REMARK  640  A    between atoms: _2158  and  _2159
REMARK  641  A    between atoms: _2173  and  _2174
REMARK  642  A    between atoms: _2174  and  _2175
REMARK  643  A    between atoms: _2174  and  _2177
REMARK  644  A    between atoms: _2177  and  _2178
REMARK  645  A    between atoms: _2190  and  _2191
REMARK  646  A    between atoms: _2191  and  _2192
REMARK  647  A    between atoms: _2191  and  _2194
REMARK  648  A    between atoms: _2194  and  _2195
REMARK  649  A    between atoms: _2204  and  _2205
REMARK  650  A    between atoms: _2205  and  _2206
REMARK  651  A    between atoms: _2205  and  _2208
REMARK  652  A    between atoms: _2208  and  _2209
REMARK  653  A    between atoms: _2216  and  _2217
REMARK  654  A    between atoms: _2217  and  _2218
REMARK  655  A    between atoms: _2217  and  _2220
REMARK  656  A    between atoms: _2220  and  _2221
REMARK  657  A    between atoms: _2228  and  _2229
REMARK  658  A    between atoms: _2229  and  _2230
REMARK  659  A    between atoms: _2229  and  _2232
REMARK  660  A    between atoms: _2232  and  _2233
REMARK  661  A    between atoms: _2233  and  _2234
REMARK  662  A    between atoms: _2243  and  _2244
REMARK  663  A    between atoms: _2244  and  _2245
REMARK  664  A    between atoms: _2244  and  _2247
REMARK  665  A    between atoms: _2247  and  _2248
REMARK  666  A    between atoms: _2248  and  _2249
REMARK  667  A    between atoms: _2260  and  _2261
REMARK  668  A    between atoms: _2261  and  _2262
REMARK  669  A    between atoms: _2261  and  _2264
REMARK  670  A    between atoms: _2264  and  _2265
REMARK  671  A    between atoms: _2270  and  _2271
REMARK  672  A    between atoms: _2281  and  _2282
REMARK  673  A    between atoms: _2282  and  _2283
REMARK  674  A    between atoms: _2282  and  _2285
REMARK  675  A    between atoms: _2291  and  _2292
REMARK  676  A    between atoms: _2292  and  _2293
REMARK  677  A    between atoms: _2292  and  _2295
REMARK  678  A    between atoms: _2295  and  _2296
REMARK  679  A    between atoms: _2315  and  _2316
REMARK  680  A    between atoms: _2316  and  _2317
REMARK  681  A    between atoms: _2316  and  _2319
REMARK  682  A    between atoms: _2319  and  _2320
REMARK  683  A    between atoms: _2320  and  _2321
REMARK  684  A    between atoms: _2330  and  _2331
REMARK  685  A    between atoms: _2331  and  _2332
REMARK  686  A    between atoms: _2331  and  _2334
REMARK  687  A    between atoms: _2334  and  _2335
REMARK  688  A    between atoms: _2341  and  _2342
REMARK  689  A    between atoms: _2342  and  _2343
REMARK  690  A    between atoms: _2342  and  _2345
REMARK  691  A    between atoms: _2345  and  _2346
REMARK  692  A    between atoms: _2352  and  _2353
REMARK  693  A    between atoms: _2353  and  _2354
REMARK  694  A    between atoms: _2353  and  _2356
REMARK  695  A    between atoms: _2362  and  _2363
REMARK  696  A    between atoms: _2363  and  _2364
REMARK  697  A    between atoms: _2369  and  _2370
REMARK  698  A    between atoms: _2370  and  _2371
REMARK  699  A    between atoms: _2376  and  _2377
REMARK  700  A    between atoms: _2377  and  _2378
REMARK  701  A    between atoms: _2377  and  _2380
REMARK  702  A    between atoms: _2380  and  _2381
REMARK  703  A    between atoms: _2387  and  _2388
REMARK  704  A    between atoms: _2388  and  _2389
REMARK  705  A    between atoms: _2388  and  _2391
REMARK  706  A    between atoms: _2391  and  _2392
REMARK  707  A    between atoms: _2407  and  _2408
REMARK  708  A    between atoms: _2408  and  _2409
REMARK  709  A    between atoms: _2408  and  _2411
REMARK  710  A    between atoms: _2411  and  _2412
REMARK  711  A    between atoms: _2411  and  _2413
REMARK  712  A    between atoms: _2421  and  _2422
REMARK  713  A    between atoms: _2422  and  _2423
REMARK  714  A    between atoms: _2422  and  _2425
REMARK  715  A    between atoms: _2425  and  _2426
REMARK  716  A    between atoms: _2425  and  _2427
REMARK  717  A    between atoms: _2437  and  _2438
REMARK  718  A    between atoms: _2438  and  _2439
REMARK  719  A    between atoms: _2438  and  _2441
REMARK  720  A    between atoms: _2441  and  _2442
REMARK  721  A    between atoms: _2442  and  _2443
REMARK  722  A    between atoms: _2443  and  _2444
REMARK  723  A    between atoms: _2461  and  _2462
REMARK  724  A    between atoms: _2462  and  _2463
REMARK  725  A    between atoms: _2462  and  _2465
REMARK  726  A    between atoms: _2465  and  _2466
REMARK  727  A    between atoms: _2465  and  _2467
REMARK  728  A    between atoms: _2475  and  _2476
REMARK  729  A    between atoms: _2476  and  _2477
REMARK  730  A    between atoms: _2476  and  _2479
REMARK  731  A    between atoms: _2479  and  _2480
REMARK  732  A    between atoms: _2487  and  _2488
REMARK  733  A    between atoms: _2488  and  _2489
REMARK  734  A    between atoms: _2488  and  _2491
REMARK  735  A    between atoms: _2491  and  _2492
REMARK  736  A    between atoms: _2491  and  _2493
REMARK  737  A    between atoms: _2501  and  _2502
REMARK  738  A    between atoms: _2502  and  _2503
REMARK  739  A    between atoms: _2508  and  _2509
REMARK  740  A    between atoms: _2509  and  _2510
REMARK  741  A    between atoms: _2509  and  _2512
REMARK  742  A    between atoms: _2512  and  _2513
REMARK  743  A    between atoms: _2513  and  _2514
REMARK  744  A    between atoms: _2524  and  _2525
REMARK  745  A    between atoms: _2537  and  _2538
REMARK  746  A    between atoms: _2538  and  _2539
REMARK  747  A    between atoms: _2538  and  _2541
REMARK  748  A    between atoms: _2541  and  _2542
REMARK  749  A    between atoms: _2542  and  _2543
REMARK  750  A    between atoms: _2543  and  _2544
REMARK  751  A    between atoms: _2554  and  _2555
REMARK  752  A    between atoms: _2555  and  _2556
REMARK  753  A    between atoms: _2561  and  _2562
REMARK  754  A    between atoms: _2562  and  _2563
REMARK  755  A    between atoms: _2562  and  _2565
REMARK  756  A    between atoms: _2565  and  _2566
REMARK  757  A    between atoms: _2566  and  _2567
REMARK  758  A    between atoms: _2567  and  _2568
REMARK  759  A    between atoms: _2585  and  _2586
REMARK  760  A    between atoms: _2586  and  _2587
REMARK  761  A    between atoms: _2592  and  _2593
REMARK  762  A    between atoms: _2593  and  _2594
REMARK  763  A    between atoms: _2593  and  _2596
REMARK  764  A    between atoms: _2596  and  _2597
REMARK  765  A    between atoms: _2596  and  _2598
REMARK  766  A    between atoms: _2606  and  _2607
REMARK  767  A    between atoms: _2607  and  _2608
REMARK  768  A    between atoms: _2607  and  _2610
REMARK  769  A    between atoms: _2610  and  _2611
REMARK  770  A    between atoms: _2611  and  _2612
REMARK  771  A    between atoms: _2612  and  _2613
REMARK  772  A    between atoms: _2613  and  _2614
REMARK  773  A    between atoms: _2628  and  _2629
REMARK  774  A    between atoms: _2629  and  _2630
REMARK  775  A    between atoms: _2629  and  _2632
REMARK  776  A    between atoms: _2632  and  _2633
REMARK  777  A    between atoms: _2632  and  _2634
REMARK  778  A    between atoms: _2644  and  _2645
REMARK  779  A    between atoms: _2645  and  _2646
REMARK  780  A    between atoms: _2645  and  _2648
REMARK  781  A    between atoms: _2648  and  _2649
REMARK  782  A    between atoms: _2648  and  _2650
REMARK  783  A    between atoms: _2649  and  _2651
REMARK  784  A    between atoms: _2663  and  _2664
REMARK  785  A    between atoms: _2664  and  _2665
REMARK  786  A    between atoms: _2664  and  _2667
REMARK  787  A    between atoms: _2667  and  _2668
REMARK  788  A    between atoms: _2668  and  _2669
REMARK  789  A    between atoms: _2668  and  _2670
REMARK  790  A    between atoms: _2682  and  _2683
REMARK  791  A    between atoms: _2683  and  _2684
REMARK  792  A    between atoms: _2683  and  _2686
REMARK  793  A    between atoms: _2686  and  _2687
REMARK  794  A    between atoms: _2699  and  _2700
REMARK  795  A    between atoms: _2700  and  _2701
REMARK  796  A    between atoms: _2700  and  _2703
REMARK  797  A    between atoms: _2703  and  _2704
REMARK  798  A    between atoms: _2704  and  _2705
REMARK  799  A    between atoms: _2704  and  _2706
REMARK  800  A    between atoms: _2718  and  _2719
REMARK  801  A    between atoms: _2719  and  _2720
REMARK  802  A    between atoms: _2719  and  _2722
REMARK  803  A    between atoms: _2722  and  _2723
REMARK  804  A    between atoms: _2723  and  _2724
REMARK  805  A    between atoms: _2724  and  _2725
REMARK  806  A    between atoms: _2725  and  _2726
REMARK  807  A    between atoms: _2740  and  _2741
REMARK  808  A    between atoms: _2741  and  _2742
REMARK  809  A    between atoms: _2741  and  _2744
REMARK  810  A    between atoms: _2744  and  _2745
REMARK  811  A    between atoms: _2745  and  _2746
REMARK  812  A    between atoms: _2755  and  _2756
REMARK  813  A    between atoms: _2756  and  _2757
REMARK  814  A    between atoms: _2756  and  _2759
REMARK  815  A    between atoms: _2759  and  _2760
REMARK  816  A    between atoms: _2767  and  _2768
REMARK  817  A    between atoms: _2768  and  _2769
REMARK  818  A    between atoms: _2768  and  _2771
REMARK  819  A    between atoms: _2771  and  _2772
REMARK  820  A    between atoms: _2772  and  _2773
REMARK  821  A    between atoms: _2784  and  _2785
REMARK  822  A    between atoms: _2785  and  _2786
REMARK  823  A    between atoms: _2785  and  _2788
REMARK  824  A    between atoms: _2788  and  _2789
REMARK  825  A    between atoms: _2788  and  _2790
REMARK  826  A    between atoms: _2798  and  _2799
REMARK  827  A    between atoms: _2799  and  _2800
REMARK  828  A    between atoms: _2799  and  _2802
REMARK  829  A    between atoms: _2802  and  _2803
REMARK  830  A    between atoms: _2803  and  _2804
REMARK  831  A    between atoms: _2813  and  _2814
REMARK  832  A    between atoms: _2814  and  _2815
REMARK  833  A    between atoms: _2814  and  _2817
REMARK  834  A    between atoms: _2817  and  _2818
REMARK  835  A    between atoms: _2823  and  _2824
REMARK  836  A    between atoms: _2834  and  _2835
REMARK  837  A    between atoms: _2835  and  _2838
REMARK  838  A    between atoms: _2838  and  _2839
REMARK  839  A    between atoms: _2839  and  _2840
REMARK  840  A    between atoms: _2839  and  _2841
REMARK  841  A    between atoms: _2884  and  _2885
REMARK  842  A    between atoms: _2884  and  _2887
REMARK  843  A    between atoms: _2887  and  _2888
REMARK  844  A    between atoms: _2888  and  _2889
REMARK  845  A    between atoms: _2899  and  _2900
REMARK  846  A    between atoms: _2900  and  _2901
REMARK  847  A    between atoms: _2900  and  _2903
REMARK  848  A    between atoms: _2903  and  _2904
REMARK  849  A    between atoms: _2904  and  _2905
REMARK  850  A    between atoms: _2905  and  _2906
REMARK  851  A    between atoms: _2923  and  _2924
REMARK  852  A    between atoms: _2924  and  _2925
REMARK  853  A    between atoms: _2924  and  _2927
REMARK  854  A    between atoms: _2927  and  _2928
REMARK  855  A    between atoms: _2928  and  _2929
REMARK  856  A    between atoms: _2929  and  _2930
REMARK  857  A    between atoms: _2947  and  _2948
REMARK  858  A    between atoms: _2948  and  _2949
REMARK  859  A    between atoms: _2948  and  _2951
REMARK  860  A    between atoms: _2951  and  _2952
REMARK  861  A    between atoms: _2951  and  _2953
REMARK  862  A    between atoms: _2952  and  _2954
REMARK  863  A    between atoms: _2966  and  _2967
REMARK  864  A    between atoms: _2967  and  _2968
REMARK  865  A    between atoms: _2967  and  _2970
REMARK  866  A    between atoms: _2970  and  _2971
REMARK  867  A    between atoms: _2971  and  _2972
REMARK  868  A    between atoms: _2972  and  _2973
REMARK  869  A    between atoms: _2973  and  _2974
REMARK  870  A    between atoms: _2988  and  _2989
REMARK  871  A    between atoms: _2989  and  _2990
REMARK  872  A    between atoms: _2989  and  _2992
REMARK  873  A    between atoms: _2992  and  _2993
REMARK  874  A    between atoms: _2993  and  _2994
REMARK  875  A    between atoms: _3003  and  _3004
REMARK  876  A    between atoms: _3004  and  _3005
REMARK  877  A    between atoms: _3004  and  _3007
REMARK  878  A    between atoms: _3007  and  _3008
REMARK  879  A    between atoms: _3007  and  _3009
REMARK  880  A    between atoms: _3008  and  _3010
REMARK  881  A    between atoms: _3022  and  _3023
REMARK  882  A    between atoms: _3023  and  _3024
REMARK  883  A    between atoms: _3023  and  _3026
REMARK  884  A    between atoms: _3026  and  _3027
REMARK  885  A    between atoms: _3026  and  _3028
REMARK  886  A    between atoms: _3038  and  _3039
REMARK  887  A    between atoms: _3039  and  _3040
REMARK  888  A    between atoms: _3039  and  _3042
REMARK  889  A    between atoms: _3042  and  _3043
REMARK  890  A    between atoms: _3043  and  _3044
REMARK  891  A    between atoms: _3044  and  _3045
REMARK  892  A    between atoms: _3045  and  _3046
REMARK  893  A    between atoms: _3060  and  _3061
REMARK  894  A    between atoms: _3061  and  _3062
REMARK  895  A    between atoms: _3061  and  _3064
REMARK  896  A    between atoms: _3064  and  _3065
REMARK  897  A    between atoms: _3065  and  _3066
REMARK  898  A    between atoms: _3066  and  _3067
REMARK  899  A    between atoms: _3067  and  _3068
REMARK  900  A    between atoms: _3082  and  _3083
REMARK  901  A    between atoms: _3083  and  _3084
REMARK  902  A    between atoms: _3083  and  _3086
REMARK  903  A    between atoms: _3086  and  _3087
REMARK  904  A    between atoms: _3099  and  _3100
REMARK  905  A    between atoms: _3100  and  _3101
REMARK  906  A    between atoms: _3100  and  _3103
REMARK  907  A    between atoms: _3103  and  _3104
REMARK  908  A    between atoms: _3110  and  _3111
REMARK  909  A    between atoms: _3111  and  _3112
REMARK  910  A    between atoms: _3111  and  _3114
REMARK  911  A    between atoms: _3114  and  _3115
REMARK  912  A    between atoms: _3115  and  _3116
REMARK  913  A    between atoms: _3127  and  _3128
REMARK  914  A    between atoms: _3128  and  _3129
REMARK  915  A    between atoms: _3128  and  _3131
REMARK  916  A    between atoms: _3131  and  _3132
REMARK  917  A    between atoms: _3147  and  _3148
REMARK  918  A    between atoms: _3148  and  _3149
REMARK  919  A    between atoms: _3148  and  _3151
REMARK  920  A    between atoms: _3151  and  _3152
REMARK  921  A    between atoms: _3151  and  _3153
REMARK  922  A    between atoms: _3152  and  _3154
REMARK  923  A    between atoms: _3166  and  _3167
REMARK  924  A    between atoms: _3167  and  _3168
REMARK  925  A    between atoms: _3173  and  _3174
REMARK  926  A    between atoms: _3174  and  _3175
REMARK  927  A    between atoms: _3174  and  _3177
REMARK  928  A    between atoms: _3177  and  _3178
REMARK  929  A    between atoms: _3183  and  _3184
REMARK  930  A    between atoms: _3195  and  _3196
REMARK  931  A    between atoms: _3208  and  _3209
REMARK  932  A    between atoms: _3209  and  _3210
REMARK  933  A    between atoms: _3209  and  _3212
REMARK  934  A    between atoms: _3212  and  _3213
REMARK  935  A    between atoms: _3212  and  _3214
REMARK  936  A    between atoms: _3213  and  _3215
REMARK  937  A    between atoms: _3227  and  _3228
REMARK  938  A    between atoms: _3228  and  _3229
REMARK  939  A    between atoms: _3228  and  _3231
REMARK  940  A    between atoms: _3231  and  _3232
REMARK  941  A    between atoms: _3231  and  _3233
REMARK  942  A    between atoms: _3241  and  _3242
REMARK  943  A    between atoms: _3242  and  _3243
REMARK  944  A    between atoms: _3242  and  _3245
REMARK  945  A    between atoms: _3245  and  _3246
REMARK  946  A    between atoms: _3246  and  _3247
REMARK  947  A    between atoms: _3246  and  _3248
REMARK  948  A    between atoms: _3260  and  _3261
REMARK  949  A    between atoms: _3261  and  _3262
REMARK  950  A    between atoms: _3261  and  _3264
REMARK  951  A    between atoms: _3264  and  _3265
REMARK  952  A    between atoms: _3280  and  _3281
REMARK  953  A    between atoms: _3281  and  _3282
REMARK  954  A    between atoms: _3281  and  _3284
REMARK  955  A    between atoms: _3284  and  _3285
REMARK  956  A    between atoms: _3284  and  _3286
REMARK  957  A    between atoms: _3296  and  _3297
REMARK  958  A    between atoms: _3297  and  _3298
REMARK  959  A    between atoms: _3297  and  _3300
REMARK  960  A    between atoms: _3300  and  _3301
REMARK  961  A    between atoms: _3301  and  _3302
REMARK                            x       y       z     vdW  Elec       q    Type
REMARK                         _______ _______ _______ _____ _____    ______ ____
ROOT
ATOM      1  H   UNK     1     -12.125  20.179  40.486  0.00  0.00    +0.000 HD
ENDROOT
TORSDOF 0
