REMARK  Name = /Users/mlugowska/PhD/ML_residence_time_prediction/protein_files/5J64_protein.pdb
REMARK  786 active torsions:
REMARK  status: ('A' for Active; 'I' for Inactive)
REMARK    1  A    between atoms: _2  and  _3
REMARK    2  A    between atoms: _2  and  _5
REMARK    3  A    between atoms: _5  and  _6
REMARK    4  A    between atoms: _6  and  _7
REMARK    5  A    between atoms: _10  and  _11
REMARK    6  A    between atoms: _11  and  _12
REMARK    7  A    between atoms: _11  and  _14
REMARK    8  A    between atoms: _17  and  _18
REMARK    9  A    between atoms: _18  and  _19
REMARK   10  A    between atoms: _18  and  _21
REMARK   11  A    between atoms: _21  and  _22
REMARK   12  A    between atoms: _22  and  _23
REMARK   13  A    between atoms: _26  and  _27
REMARK   14  A    between atoms: _27  and  _28
REMARK   15  A    between atoms: _27  and  _30
REMARK   16  A    between atoms: _33  and  _34
REMARK   17  A    between atoms: _34  and  _35
REMARK   18  A    between atoms: _34  and  _37
REMARK   19  A    between atoms: _37  and  _38
REMARK   20  A    between atoms: _44  and  _45
REMARK   21  A    between atoms: _45  and  _46
REMARK   22  A    between atoms: _49  and  _50
REMARK   23  A    between atoms: _50  and  _51
REMARK   24  A    between atoms: _50  and  _53
REMARK   25  A    between atoms: _53  and  _54
REMARK   26  A    between atoms: _60  and  _61
REMARK   27  A    between atoms: _61  and  _62
REMARK   28  A    between atoms: _61  and  _64
REMARK   29  A    between atoms: _64  and  _65
REMARK   30  A    between atoms: _65  and  _66
REMARK   31  A    between atoms: _69  and  _70
REMARK   32  A    between atoms: _70  and  _71
REMARK   33  A    between atoms: _74  and  _75
REMARK   34  A    between atoms: _75  and  _76
REMARK   35  A    between atoms: _75  and  _78
REMARK   36  A    between atoms: _78  and  _79
REMARK   37  A    between atoms: _79  and  _80
REMARK   38  A    between atoms: _83  and  _84
REMARK   39  A    between atoms: _84  and  _85
REMARK   40  A    between atoms: _84  and  _87
REMARK   41  A    between atoms: _87  and  _88
REMARK   42  A    between atoms: _91  and  _92
REMARK   43  A    between atoms: _92  and  _93
REMARK   44  A    between atoms: _96  and  _97
REMARK   45  A    between atoms: _97  and  _98
REMARK   46  A    between atoms: _97  and  _100
REMARK   47  A    between atoms: _100  and  _101
REMARK   48  A    between atoms: _101  and  _102
REMARK   49  A    between atoms: _105  and  _106
REMARK   50  A    between atoms: _106  and  _107
REMARK   51  A    between atoms: _106  and  _109
REMARK   52  A    between atoms: _109  and  _110
REMARK   53  A    between atoms: _113  and  _114
REMARK   54  A    between atoms: _114  and  _115
REMARK   55  A    between atoms: _114  and  _117
REMARK   56  A    between atoms: _117  and  _118
REMARK   57  A    between atoms: _118  and  _119
REMARK   58  A    between atoms: _121  and  _122
REMARK   59  A    between atoms: _122  and  _123
REMARK   60  A    between atoms: _122  and  _125
REMARK   61  A    between atoms: _127  and  _128
REMARK   62  A    between atoms: _128  and  _129
REMARK   63  A    between atoms: _128  and  _131
REMARK   64  A    between atoms: _131  and  _132
REMARK   65  A    between atoms: _135  and  _136
REMARK   66  A    between atoms: _136  and  _137
REMARK   67  A    between atoms: _136  and  _139
REMARK   68  A    between atoms: _139  and  _140
REMARK   69  A    between atoms: _143  and  _144
REMARK   70  A    between atoms: _144  and  _145
REMARK   71  A    between atoms: _144  and  _147
REMARK   72  A    between atoms: _147  and  _148
REMARK   73  A    between atoms: _151  and  _152
REMARK   74  A    between atoms: _152  and  _153
REMARK   75  A    between atoms: _152  and  _155
REMARK   76  A    between atoms: _155  and  _156
REMARK   77  A    between atoms: _159  and  _160
REMARK   78  A    between atoms: _160  and  _161
REMARK   79  A    between atoms: _160  and  _163
REMARK   80  A    between atoms: _166  and  _167
REMARK   81  A    between atoms: _167  and  _170
REMARK   82  A    between atoms: _170  and  _171
REMARK   83  A    between atoms: _181  and  _183
REMARK   84  A    between atoms: _183  and  _184
REMARK   85  A    between atoms: _189  and  _194
REMARK   86  A    between atoms: _192  and  _195
REMARK   87  A    between atoms: _193  and  _194
REMARK   88  A    between atoms: _195  and  _196
REMARK   89  A    between atoms: _201  and  _202
REMARK   90  A    between atoms: _202  and  _203
REMARK   91  A    between atoms: _202  and  _205
REMARK   92  A    between atoms: _207  and  _208
REMARK   93  A    between atoms: _208  and  _209
REMARK   94  A    between atoms: _208  and  _211
REMARK   95  A    between atoms: _211  and  _212
REMARK   96  A    between atoms: _215  and  _216
REMARK   97  A    between atoms: _216  and  _217
REMARK   98  A    between atoms: _216  and  _219
REMARK   99  A    between atoms: _219  and  _220
REMARK  100  A    between atoms: _220  and  _221
REMARK  101  A    between atoms: _221  and  _222
REMARK  102  A    between atoms: _224  and  _225
REMARK  103  A    between atoms: _225  and  _226
REMARK  104  A    between atoms: _225  and  _228
REMARK  105  A    between atoms: _228  and  _229
REMARK  106  A    between atoms: _229  and  _230
REMARK  107  A    between atoms: _233  and  _234
REMARK  108  A    between atoms: _234  and  _235
REMARK  109  A    between atoms: _234  and  _237
REMARK  110  A    between atoms: _237  and  _238
REMARK  111  A    between atoms: _241  and  _242
REMARK  112  A    between atoms: _242  and  _243
REMARK  113  A    between atoms: _242  and  _245
REMARK  114  A    between atoms: _245  and  _246
REMARK  115  A    between atoms: _252  and  _253
REMARK  116  A    between atoms: _253  and  _254
REMARK  117  A    between atoms: _253  and  _256
REMARK  118  A    between atoms: _256  and  _257
REMARK  119  A    between atoms: _260  and  _261
REMARK  120  A    between atoms: _261  and  _262
REMARK  121  A    between atoms: _261  and  _264
REMARK  122  A    between atoms: _264  and  _265
REMARK  123  A    between atoms: _265  and  _266
REMARK  124  A    between atoms: _266  and  _267
REMARK  125  A    between atoms: _271  and  _272
REMARK  126  A    between atoms: _272  and  _273
REMARK  127  A    between atoms: _272  and  _275
REMARK  128  A    between atoms: _275  and  _276
REMARK  129  A    between atoms: _276  and  _277
REMARK  130  A    between atoms: _280  and  _281
REMARK  131  A    between atoms: _281  and  _282
REMARK  132  A    between atoms: _281  and  _284
REMARK  133  A    between atoms: _284  and  _285
REMARK  134  A    between atoms: _288  and  _289
REMARK  135  A    between atoms: _289  and  _292
REMARK  136  A    between atoms: _292  and  _293
REMARK  137  A    between atoms: _309  and  _310
REMARK  138  A    between atoms: _309  and  _312
REMARK  139  A    between atoms: _312  and  _313
REMARK  140  A    between atoms: _316  and  _317
REMARK  141  A    between atoms: _317  and  _318
REMARK  142  A    between atoms: _317  and  _320
REMARK  143  A    between atoms: _322  and  _323
REMARK  144  A    between atoms: _323  and  _324
REMARK  145  A    between atoms: _323  and  _326
REMARK  146  A    between atoms: _328  and  _329
REMARK  147  A    between atoms: _329  and  _330
REMARK  148  A    between atoms: _329  and  _332
REMARK  149  A    between atoms: _332  and  _333
REMARK  150  A    between atoms: _336  and  _337
REMARK  151  A    between atoms: _337  and  _338
REMARK  152  A    between atoms: _341  and  _342
REMARK  153  A    between atoms: _342  and  _343
REMARK  154  A    between atoms: _342  and  _345
REMARK  155  A    between atoms: _345  and  _346
REMARK  156  A    between atoms: _349  and  _350
REMARK  157  A    between atoms: _350  and  _351
REMARK  158  A    between atoms: _350  and  _353
REMARK  159  A    between atoms: _353  and  _354
REMARK  160  A    between atoms: _357  and  _358
REMARK  161  A    between atoms: _358  and  _359
REMARK  162  A    between atoms: _358  and  _361
REMARK  163  A    between atoms: _361  and  _362
REMARK  164  A    between atoms: _362  and  _363
REMARK  165  A    between atoms: _363  and  _364
REMARK  166  A    between atoms: _366  and  _367
REMARK  167  A    between atoms: _367  and  _368
REMARK  168  A    between atoms: _367  and  _370
REMARK  169  A    between atoms: _370  and  _371
REMARK  170  A    between atoms: _374  and  _375
REMARK  171  A    between atoms: _375  and  _376
REMARK  172  A    between atoms: _375  and  _378
REMARK  173  A    between atoms: _378  and  _379
REMARK  174  A    between atoms: _379  and  _380
REMARK  175  A    between atoms: _380  and  _381
REMARK  176  A    between atoms: _385  and  _386
REMARK  177  A    between atoms: _386  and  _387
REMARK  178  A    between atoms: _386  and  _389
REMARK  179  A    between atoms: _389  and  _390
REMARK  180  A    between atoms: _397  and  _398
REMARK  181  A    between atoms: _398  and  _399
REMARK  182  A    between atoms: _398  and  _401
REMARK  183  A    between atoms: _401  and  _402
REMARK  184  A    between atoms: _402  and  _403
REMARK  185  A    between atoms: _406  and  _407
REMARK  186  A    between atoms: _407  and  _408
REMARK  187  A    between atoms: _407  and  _410
REMARK  188  A    between atoms: _412  and  _413
REMARK  189  A    between atoms: _413  and  _414
REMARK  190  A    between atoms: _413  and  _416
REMARK  191  A    between atoms: _416  and  _417
REMARK  192  A    between atoms: _420  and  _421
REMARK  193  A    between atoms: _421  and  _422
REMARK  194  A    between atoms: _421  and  _424
REMARK  195  A    between atoms: _427  and  _428
REMARK  196  A    between atoms: _428  and  _429
REMARK  197  A    between atoms: _428  and  _431
REMARK  198  A    between atoms: _431  and  _432
REMARK  199  A    between atoms: _436  and  _437
REMARK  200  A    between atoms: _442  and  _443
REMARK  201  A    between atoms: _443  and  _444
REMARK  202  A    between atoms: _443  and  _446
REMARK  203  A    between atoms: _448  and  _449
REMARK  204  A    between atoms: _449  and  _450
REMARK  205  A    between atoms: _449  and  _452
REMARK  206  A    between atoms: _452  and  _453
REMARK  207  A    between atoms: _453  and  _454
REMARK  208  A    between atoms: _454  and  _455
REMARK  209  A    between atoms: _457  and  _458
REMARK  210  A    between atoms: _458  and  _459
REMARK  211  A    between atoms: _458  and  _461
REMARK  212  A    between atoms: _461  and  _462
REMARK  213  A    between atoms: _465  and  _466
REMARK  214  A    between atoms: _466  and  _467
REMARK  215  A    between atoms: _466  and  _469
REMARK  216  A    between atoms: _469  and  _470
REMARK  217  A    between atoms: _473  and  _474
REMARK  218  A    between atoms: _474  and  _475
REMARK  219  A    between atoms: _474  and  _477
REMARK  220  A    between atoms: _479  and  _480
REMARK  221  A    between atoms: _480  and  _481
REMARK  222  A    between atoms: _483  and  _484
REMARK  223  A    between atoms: _484  and  _485
REMARK  224  A    between atoms: _484  and  _487
REMARK  225  A    between atoms: _487  and  _488
REMARK  226  A    between atoms: _488  and  _489
REMARK  227  A    between atoms: _489  and  _490
REMARK  228  A    between atoms: _492  and  _493
REMARK  229  A    between atoms: _493  and  _494
REMARK  230  A    between atoms: _493  and  _496
REMARK  231  A    between atoms: _496  and  _497
REMARK  232  A    between atoms: _497  and  _498
REMARK  233  A    between atoms: _501  and  _502
REMARK  234  A    between atoms: _502  and  _503
REMARK  235  A    between atoms: _502  and  _505
REMARK  236  A    between atoms: _505  and  _506
REMARK  237  A    between atoms: _509  and  _510
REMARK  238  A    between atoms: _510  and  _511
REMARK  239  A    between atoms: _510  and  _513
REMARK  240  A    between atoms: _513  and  _514
REMARK  241  A    between atoms: _519  and  _520
REMARK  242  A    between atoms: _520  and  _521
REMARK  243  A    between atoms: _520  and  _523
REMARK  244  A    between atoms: _523  and  _524
REMARK  245  A    between atoms: _527  and  _528
REMARK  246  A    between atoms: _528  and  _529
REMARK  247  A    between atoms: _528  and  _531
REMARK  248  A    between atoms: _531  and  _532
REMARK  249  A    between atoms: _535  and  _536
REMARK  250  A    between atoms: _536  and  _537
REMARK  251  A    between atoms: _536  and  _539
REMARK  252  A    between atoms: _539  and  _540
REMARK  253  A    between atoms: _543  and  _544
REMARK  254  A    between atoms: _544  and  _545
REMARK  255  A    between atoms: _544  and  _547
REMARK  256  A    between atoms: _547  and  _548
REMARK  257  A    between atoms: _552  and  _553
REMARK  258  A    between atoms: _558  and  _559
REMARK  259  A    between atoms: _559  and  _560
REMARK  260  A    between atoms: _559  and  _562
REMARK  261  A    between atoms: _562  and  _563
REMARK  262  A    between atoms: _566  and  _567
REMARK  263  A    between atoms: _567  and  _568
REMARK  264  A    between atoms: _567  and  _570
REMARK  265  A    between atoms: _570  and  _571
REMARK  266  A    between atoms: _571  and  _572
REMARK  267  A    between atoms: _572  and  _573
REMARK  268  A    between atoms: _575  and  _576
REMARK  269  A    between atoms: _576  and  _577
REMARK  270  A    between atoms: _576  and  _579
REMARK  271  A    between atoms: _579  and  _580
REMARK  272  A    between atoms: _580  and  _581
REMARK  273  A    between atoms: _584  and  _585
REMARK  274  A    between atoms: _585  and  _586
REMARK  275  A    between atoms: _585  and  _588
REMARK  276  A    between atoms: _588  and  _589
REMARK  277  A    between atoms: _592  and  _593
REMARK  278  A    between atoms: _593  and  _594
REMARK  279  A    between atoms: _593  and  _596
REMARK  280  A    between atoms: _596  and  _597
REMARK  281  A    between atoms: _597  and  _598
REMARK  282  A    between atoms: _598  and  _599
REMARK  283  A    between atoms: _603  and  _604
REMARK  284  A    between atoms: _604  and  _605
REMARK  285  A    between atoms: _604  and  _607
REMARK  286  A    between atoms: _610  and  _611
REMARK  287  A    between atoms: _611  and  _612
REMARK  288  A    between atoms: _611  and  _614
REMARK  289  A    between atoms: _614  and  _615
REMARK  290  A    between atoms: _618  and  _619
REMARK  291  A    between atoms: _619  and  _620
REMARK  292  A    between atoms: _619  and  _622
REMARK  293  A    between atoms: _625  and  _626
REMARK  294  A    between atoms: _626  and  _627
REMARK  295  A    between atoms: _626  and  _629
REMARK  296  A    between atoms: _629  and  _630
REMARK  297  A    between atoms: _633  and  _634
REMARK  298  A    between atoms: _634  and  _635
REMARK  299  A    between atoms: _634  and  _637
REMARK  300  A    between atoms: _640  and  _641
REMARK  301  A    between atoms: _641  and  _642
REMARK  302  A    between atoms: _641  and  _644
REMARK  303  A    between atoms: _644  and  _645
REMARK  304  A    between atoms: _648  and  _649
REMARK  305  A    between atoms: _649  and  _650
REMARK  306  A    between atoms: _649  and  _652
REMARK  307  A    between atoms: _655  and  _656
REMARK  308  A    between atoms: _656  and  _657
REMARK  309  A    between atoms: _659  and  _660
REMARK  310  A    between atoms: _660  and  _661
REMARK  311  A    between atoms: _660  and  _663
REMARK  312  A    between atoms: _663  and  _664
REMARK  313  A    between atoms: _667  and  _668
REMARK  314  A    between atoms: _668  and  _669
REMARK  315  A    between atoms: _671  and  _672
REMARK  316  A    between atoms: _672  and  _673
REMARK  317  A    between atoms: _672  and  _675
REMARK  318  A    between atoms: _675  and  _676
REMARK  319  A    between atoms: _676  and  _677
REMARK  320  A    between atoms: _679  and  _680
REMARK  321  A    between atoms: _680  and  _681
REMARK  322  A    between atoms: _680  and  _683
REMARK  323  A    between atoms: _686  and  _687
REMARK  324  A    between atoms: _687  and  _688
REMARK  325  A    between atoms: _687  and  _690
REMARK  326  A    between atoms: _690  and  _691
REMARK  327  A    between atoms: _691  and  _692
REMARK  328  A    between atoms: _692  and  _693
REMARK  329  A    between atoms: _695  and  _696
REMARK  330  A    between atoms: _696  and  _697
REMARK  331  A    between atoms: _700  and  _701
REMARK  332  A    between atoms: _701  and  _702
REMARK  333  A    between atoms: _701  and  _704
REMARK  334  A    between atoms: _704  and  _705
REMARK  335  A    between atoms: _708  and  _709
REMARK  336  A    between atoms: _709  and  _710
REMARK  337  A    between atoms: _709  and  _712
REMARK  338  A    between atoms: _712  and  _713
REMARK  339  A    between atoms: _716  and  _717
REMARK  340  A    between atoms: _717  and  _720
REMARK  341  A    between atoms: _720  and  _721
REMARK  342  A    between atoms: _733  and  _734
REMARK  343  A    between atoms: _733  and  _735
REMARK  344  A    between atoms: _741  and  _744
REMARK  345  A    between atoms: _744  and  _745
REMARK  346  A    between atoms: _758  and  _759
REMARK  347  A    between atoms: _758  and  _761
REMARK  348  A    between atoms: _759  and  _760
REMARK  349  A    between atoms: _765  and  _766
REMARK  350  A    between atoms: _768  and  _769
REMARK  351  A    between atoms: _769  and  _770
REMARK  352  A    between atoms: _769  and  _772
REMARK  353  A    between atoms: _775  and  _776
REMARK  354  A    between atoms: _776  and  _777
REMARK  355  A    between atoms: _776  and  _779
REMARK  356  A    between atoms: _779  and  _780
REMARK  357  A    between atoms: _783  and  _784
REMARK  358  A    between atoms: _784  and  _785
REMARK  359  A    between atoms: _788  and  _789
REMARK  360  A    between atoms: _789  and  _790
REMARK  361  A    between atoms: _789  and  _792
REMARK  362  A    between atoms: _792  and  _793
REMARK  363  A    between atoms: _793  and  _794
REMARK  364  A    between atoms: _794  and  _795
REMARK  365  A    between atoms: _797  and  _798
REMARK  366  A    between atoms: _798  and  _799
REMARK  367  A    between atoms: _798  and  _801
REMARK  368  A    between atoms: _803  and  _804
REMARK  369  A    between atoms: _804  and  _805
REMARK  370  A    between atoms: _807  and  _808
REMARK  371  A    between atoms: _808  and  _809
REMARK  372  A    between atoms: _808  and  _811
REMARK  373  A    between atoms: _814  and  _815
REMARK  374  A    between atoms: _815  and  _816
REMARK  375  A    between atoms: _815  and  _818
REMARK  376  A    between atoms: _818  and  _819
REMARK  377  A    between atoms: _819  and  _820
REMARK  378  A    between atoms: _820  and  _821
REMARK  379  A    between atoms: _823  and  _824
REMARK  380  A    between atoms: _824  and  _825
REMARK  381  A    between atoms: _828  and  _829
REMARK  382  A    between atoms: _829  and  _830
REMARK  383  A    between atoms: _829  and  _832
REMARK  384  A    between atoms: _832  and  _833
REMARK  385  A    between atoms: _839  and  _840
REMARK  386  A    between atoms: _840  and  _841
REMARK  387  A    between atoms: _840  and  _843
REMARK  388  A    between atoms: _843  and  _844
REMARK  389  A    between atoms: _844  and  _845
REMARK  390  A    between atoms: _847  and  _848
REMARK  391  A    between atoms: _848  and  _849
REMARK  392  A    between atoms: _848  and  _851
REMARK  393  A    between atoms: _851  and  _852
REMARK  394  A    between atoms: _852  and  _853
REMARK  395  A    between atoms: _856  and  _857
REMARK  396  A    between atoms: _857  and  _858
REMARK  397  A    between atoms: _861  and  _862
REMARK  398  A    between atoms: _862  and  _863
REMARK  399  A    between atoms: _862  and  _865
REMARK  400  A    between atoms: _865  and  _866
REMARK  401  A    between atoms: _869  and  _870
REMARK  402  A    between atoms: _870  and  _871
REMARK  403  A    between atoms: _870  and  _873
REMARK  404  A    between atoms: _873  and  _874
REMARK  405  A    between atoms: _874  and  _875
REMARK  406  A    between atoms: _878  and  _879
REMARK  407  A    between atoms: _879  and  _880
REMARK  408  A    between atoms: _883  and  _884
REMARK  409  A    between atoms: _884  and  _885
REMARK  410  A    between atoms: _887  and  _888
REMARK  411  A    between atoms: _888  and  _889
REMARK  412  A    between atoms: _892  and  _893
REMARK  413  A    between atoms: _893  and  _894
REMARK  414  A    between atoms: _893  and  _896
REMARK  415  A    between atoms: _896  and  _897
REMARK  416  A    between atoms: _900  and  _901
REMARK  417  A    between atoms: _901  and  _902
REMARK  418  A    between atoms: _901  and  _904
REMARK  419  A    between atoms: _904  and  _905
REMARK  420  A    between atoms: _908  and  _909
REMARK  421  A    between atoms: _909  and  _910
REMARK  422  A    between atoms: _909  and  _912
REMARK  423  A    between atoms: _914  and  _915
REMARK  424  A    between atoms: _915  and  _916
REMARK  425  A    between atoms: _915  and  _918
REMARK  426  A    between atoms: _918  and  _919
REMARK  427  A    between atoms: _919  and  _920
REMARK  428  A    between atoms: _922  and  _923
REMARK  429  A    between atoms: _923  and  _924
REMARK  430  A    between atoms: _923  and  _926
REMARK  431  A    between atoms: _926  and  _927
REMARK  432  A    between atoms: _930  and  _931
REMARK  433  A    between atoms: _931  and  _932
REMARK  434  A    between atoms: _934  and  _935
REMARK  435  A    between atoms: _935  and  _936
REMARK  436  A    between atoms: _935  and  _938
REMARK  437  A    between atoms: _938  and  _939
REMARK  438  A    between atoms: _939  and  _940
REMARK  439  A    between atoms: _943  and  _944
REMARK  440  A    between atoms: _944  and  _945
REMARK  441  A    between atoms: _944  and  _947
REMARK  442  A    between atoms: _947  and  _948
REMARK  443  A    between atoms: _954  and  _955
REMARK  444  A    between atoms: _955  and  _956
REMARK  445  A    between atoms: _958  and  _959
REMARK  446  A    between atoms: _959  and  _960
REMARK  447  A    between atoms: _959  and  _962
REMARK  448  A    between atoms: _965  and  _966
REMARK  449  A    between atoms: _966  and  _967
REMARK  450  A    between atoms: _969  and  _970
REMARK  451  A    between atoms: _970  and  _971
REMARK  452  A    between atoms: _970  and  _973
REMARK  453  A    between atoms: _973  and  _974
REMARK  454  A    between atoms: _980  and  _981
REMARK  455  A    between atoms: _981  and  _982
REMARK  456  A    between atoms: _981  and  _984
REMARK  457  A    between atoms: _984  and  _985
REMARK  458  A    between atoms: _992  and  _993
REMARK  459  A    between atoms: _993  and  _994
REMARK  460  A    between atoms: _993  and  _996
REMARK  461  A    between atoms: _998  and  _999
REMARK  462  A    between atoms: _999  and  _1000
REMARK  463  A    between atoms: _1003  and  _1004
REMARK  464  A    between atoms: _1004  and  _1005
REMARK  465  A    between atoms: _1004  and  _1007
REMARK  466  A    between atoms: _1007  and  _1008
REMARK  467  A    between atoms: _1015  and  _1016
REMARK  468  A    between atoms: _1016  and  _1017
REMARK  469  A    between atoms: _1016  and  _1019
REMARK  470  A    between atoms: _1019  and  _1020
REMARK  471  A    between atoms: _1023  and  _1024
REMARK  472  A    between atoms: _1024  and  _1025
REMARK  473  A    between atoms: _1024  and  _1027
REMARK  474  A    between atoms: _1030  and  _1031
REMARK  475  A    between atoms: _1031  and  _1032
REMARK  476  A    between atoms: _1035  and  _1036
REMARK  477  A    between atoms: _1036  and  _1037
REMARK  478  A    between atoms: _1036  and  _1039
REMARK  479  A    between atoms: _1039  and  _1040
REMARK  480  A    between atoms: _1040  and  _1041
REMARK  481  A    between atoms: _1044  and  _1045
REMARK  482  A    between atoms: _1045  and  _1046
REMARK  483  A    between atoms: _1045  and  _1048
REMARK  484  A    between atoms: _1048  and  _1049
REMARK  485  A    between atoms: _1049  and  _1050
REMARK  486  A    between atoms: _1050  and  _1051
REMARK  487  A    between atoms: _1053  and  _1054
REMARK  488  A    between atoms: _1054  and  _1055
REMARK  489  A    between atoms: _1054  and  _1057
REMARK  490  A    between atoms: _1060  and  _1061
REMARK  491  A    between atoms: _1061  and  _1062
REMARK  492  A    between atoms: _1061  and  _1064
REMARK  493  A    between atoms: _1067  and  _1068
REMARK  494  A    between atoms: _1068  and  _1069
REMARK  495  A    between atoms: _1068  and  _1071
REMARK  496  A    between atoms: _1074  and  _1075
REMARK  497  A    between atoms: _1075  and  _1076
REMARK  498  A    between atoms: _1075  and  _1078
REMARK  499  A    between atoms: _1078  and  _1079
REMARK  500  A    between atoms: _1082  and  _1083
REMARK  501  A    between atoms: _1083  and  _1084
REMARK  502  A    between atoms: _1083  and  _1086
REMARK  503  A    between atoms: _1089  and  _1090
REMARK  504  A    between atoms: _1090  and  _1091
REMARK  505  A    between atoms: _1090  and  _1093
REMARK  506  A    between atoms: _1093  and  _1094
REMARK  507  A    between atoms: _1094  and  _1095
REMARK  508  A    between atoms: _1095  and  _1096
REMARK  509  A    between atoms: _1098  and  _1099
REMARK  510  A    between atoms: _1099  and  _1100
REMARK  511  A    between atoms: _1099  and  _1102
REMARK  512  A    between atoms: _1102  and  _1103
REMARK  513  A    between atoms: _1108  and  _1109
REMARK  514  A    between atoms: _1109  and  _1110
REMARK  515  A    between atoms: _1109  and  _1112
REMARK  516  A    between atoms: _1112  and  _1113
REMARK  517  A    between atoms: _1116  and  _1117
REMARK  518  A    between atoms: _1117  and  _1118
REMARK  519  A    between atoms: _1117  and  _1120
REMARK  520  A    between atoms: _1120  and  _1121
REMARK  521  A    between atoms: _1124  and  _1125
REMARK  522  A    between atoms: _1125  and  _1126
REMARK  523  A    between atoms: _1125  and  _1128
REMARK  524  A    between atoms: _1128  and  _1129
REMARK  525  A    between atoms: _1132  and  _1133
REMARK  526  A    between atoms: _1133  and  _1134
REMARK  527  A    between atoms: _1133  and  _1136
REMARK  528  A    between atoms: _1136  and  _1137
REMARK  529  A    between atoms: _1137  and  _1138
REMARK  530  A    between atoms: _1141  and  _1142
REMARK  531  A    between atoms: _1142  and  _1143
REMARK  532  A    between atoms: _1142  and  _1145
REMARK  533  A    between atoms: _1145  and  _1146
REMARK  534  A    between atoms: _1146  and  _1147
REMARK  535  A    between atoms: _1150  and  _1151
REMARK  536  A    between atoms: _1151  and  _1152
REMARK  537  A    between atoms: _1151  and  _1154
REMARK  538  A    between atoms: _1154  and  _1155
REMARK  539  A    between atoms: _1162  and  _1163
REMARK  540  A    between atoms: _1163  and  _1164
REMARK  541  A    between atoms: _1167  and  _1168
REMARK  542  A    between atoms: _1168  and  _1169
REMARK  543  A    between atoms: _1168  and  _1171
REMARK  544  A    between atoms: _1171  and  _1172
REMARK  545  A    between atoms: _1181  and  _1182
REMARK  546  A    between atoms: _1182  and  _1183
REMARK  547  A    between atoms: _1182  and  _1185
REMARK  548  A    between atoms: _1185  and  _1186
REMARK  549  A    between atoms: _1186  and  _1187
REMARK  550  A    between atoms: _1190  and  _1191
REMARK  551  A    between atoms: _1191  and  _1192
REMARK  552  A    between atoms: _1191  and  _1194
REMARK  553  A    between atoms: _1196  and  _1197
REMARK  554  A    between atoms: _1197  and  _1198
REMARK  555  A    between atoms: _1197  and  _1200
REMARK  556  A    between atoms: _1202  and  _1203
REMARK  557  A    between atoms: _1203  and  _1204
REMARK  558  A    between atoms: _1207  and  _1208
REMARK  559  A    between atoms: _1208  and  _1209
REMARK  560  A    between atoms: _1211  and  _1212
REMARK  561  A    between atoms: _1212  and  _1213
REMARK  562  A    between atoms: _1215  and  _1216
REMARK  563  A    between atoms: _1216  and  _1217
REMARK  564  A    between atoms: _1216  and  _1219
REMARK  565  A    between atoms: _1221  and  _1222
REMARK  566  A    between atoms: _1222  and  _1223
REMARK  567  A    between atoms: _1222  and  _1225
REMARK  568  A    between atoms: _1225  and  _1226
REMARK  569  A    between atoms: _1232  and  _1233
REMARK  570  A    between atoms: _1233  and  _1234
REMARK  571  A    between atoms: _1233  and  _1236
REMARK  572  A    between atoms: _1239  and  _1240
REMARK  573  A    between atoms: _1240  and  _1241
REMARK  574  A    between atoms: _1240  and  _1243
REMARK  575  A    between atoms: _1247  and  _1249
REMARK  576  A    between atoms: _1247  and  _1252
REMARK  577  A    between atoms: _1251  and  _1252
REMARK  578  A    between atoms: _1251  and  _1254
REMARK  579  A    between atoms: _1253  and  _1254
REMARK  580  A    between atoms: _1253  and  _1256
REMARK  581  A    between atoms: _1254  and  _1255
REMARK  582  A    between atoms: _1255  and  _1257
REMARK  583  A    between atoms: _1256  and  _1258
REMARK  584  A    between atoms: _1265  and  _1266
REMARK  585  A    between atoms: _1266  and  _1267
REMARK  586  A    between atoms: _1266  and  _1269
REMARK  587  A    between atoms: _1272  and  _1273
REMARK  588  A    between atoms: _1273  and  _1274
REMARK  589  A    between atoms: _1273  and  _1276
REMARK  590  A    between atoms: _1276  and  _1277
REMARK  591  A    between atoms: _1280  and  _1281
REMARK  592  A    between atoms: _1281  and  _1282
REMARK  593  A    between atoms: _1281  and  _1284
REMARK  594  A    between atoms: _1287  and  _1288
REMARK  595  A    between atoms: _1288  and  _1289
REMARK  596  A    between atoms: _1291  and  _1292
REMARK  597  A    between atoms: _1292  and  _1293
REMARK  598  A    between atoms: _1292  and  _1295
REMARK  599  A    between atoms: _1295  and  _1296
REMARK  600  A    between atoms: _1296  and  _1297
REMARK  601  A    between atoms: _1301  and  _1302
REMARK  602  A    between atoms: _1307  and  _1308
REMARK  603  A    between atoms: _1308  and  _1309
REMARK  604  A    between atoms: _1308  and  _1311
REMARK  605  A    between atoms: _1311  and  _1312
REMARK  606  A    between atoms: _1312  and  _1313
REMARK  607  A    between atoms: _1315  and  _1316
REMARK  608  A    between atoms: _1316  and  _1317
REMARK  609  A    between atoms: _1319  and  _1320
REMARK  610  A    between atoms: _1320  and  _1321
REMARK  611  A    between atoms: _1320  and  _1323
REMARK  612  A    between atoms: _1323  and  _1324
REMARK  613  A    between atoms: _1324  and  _1325
REMARK  614  A    between atoms: _1325  and  _1326
REMARK  615  A    between atoms: _1330  and  _1331
REMARK  616  A    between atoms: _1331  and  _1332
REMARK  617  A    between atoms: _1334  and  _1335
REMARK  618  A    between atoms: _1335  and  _1336
REMARK  619  A    between atoms: _1335  and  _1338
REMARK  620  A    between atoms: _1341  and  _1342
REMARK  621  A    between atoms: _1342  and  _1343
REMARK  622  A    between atoms: _1342  and  _1345
REMARK  623  A    between atoms: _1345  and  _1346
REMARK  624  A    between atoms: _1346  and  _1347
REMARK  625  A    between atoms: _1347  and  _1348
REMARK  626  A    between atoms: _1350  and  _1351
REMARK  627  A    between atoms: _1351  and  _1352
REMARK  628  A    between atoms: _1351  and  _1354
REMARK  629  A    between atoms: _1357  and  _1358
REMARK  630  A    between atoms: _1358  and  _1359
REMARK  631  A    between atoms: _1358  and  _1361
REMARK  632  A    between atoms: _1361  and  _1362
REMARK  633  A    between atoms: _1365  and  _1366
REMARK  634  A    between atoms: _1366  and  _1367
REMARK  635  A    between atoms: _1366  and  _1369
REMARK  636  A    between atoms: _1369  and  _1370
REMARK  637  A    between atoms: _1373  and  _1374
REMARK  638  A    between atoms: _1374  and  _1375
REMARK  639  A    between atoms: _1374  and  _1377
REMARK  640  A    between atoms: _1377  and  _1378
REMARK  641  A    between atoms: _1383  and  _1384
REMARK  642  A    between atoms: _1384  and  _1385
REMARK  643  A    between atoms: _1384  and  _1387
REMARK  644  A    between atoms: _1387  and  _1388
REMARK  645  A    between atoms: _1391  and  _1392
REMARK  646  A    between atoms: _1392  and  _1393
REMARK  647  A    between atoms: _1392  and  _1395
REMARK  648  A    between atoms: _1395  and  _1396
REMARK  649  A    between atoms: _1396  and  _1397
REMARK  650  A    between atoms: _1397  and  _1398
REMARK  651  A    between atoms: _1400  and  _1401
REMARK  652  A    between atoms: _1401  and  _1402
REMARK  653  A    between atoms: _1401  and  _1404
REMARK  654  A    between atoms: _1404  and  _1405
REMARK  655  A    between atoms: _1405  and  _1406
REMARK  656  A    between atoms: _1409  and  _1410
REMARK  657  A    between atoms: _1410  and  _1411
REMARK  658  A    between atoms: _1410  and  _1413
REMARK  659  A    between atoms: _1413  and  _1414
REMARK  660  A    between atoms: _1417  and  _1418
REMARK  661  A    between atoms: _1418  and  _1419
REMARK  662  A    between atoms: _1418  and  _1421
REMARK  663  A    between atoms: _1421  and  _1422
REMARK  664  A    between atoms: _1422  and  _1423
REMARK  665  A    between atoms: _1426  and  _1427
REMARK  666  A    between atoms: _1427  and  _1428
REMARK  667  A    between atoms: _1427  and  _1430
REMARK  668  A    between atoms: _1433  and  _1434
REMARK  669  A    between atoms: _1434  and  _1435
REMARK  670  A    between atoms: _1434  and  _1437
REMARK  671  A    between atoms: _1437  and  _1438
REMARK  672  A    between atoms: _1438  and  _1439
REMARK  673  A    between atoms: _1442  and  _1443
REMARK  674  A    between atoms: _1443  and  _1444
REMARK  675  A    between atoms: _1443  and  _1446
REMARK  676  A    between atoms: _1446  and  _1447
REMARK  677  A    between atoms: _1454  and  _1455
REMARK  678  A    between atoms: _1455  and  _1456
REMARK  679  A    between atoms: _1455  and  _1458
REMARK  680  A    between atoms: _1458  and  _1459
REMARK  681  A    between atoms: _1462  and  _1463
REMARK  682  A    between atoms: _1463  and  _1464
REMARK  683  A    between atoms: _1463  and  _1466
REMARK  684  A    between atoms: _1466  and  _1467
REMARK  685  A    between atoms: _1467  and  _1468
REMARK  686  A    between atoms: _1471  and  _1472
REMARK  687  A    between atoms: _1472  and  _1473
REMARK  688  A    between atoms: _1472  and  _1475
REMARK  689  A    between atoms: _1475  and  _1476
REMARK  690  A    between atoms: _1476  and  _1477
REMARK  691  A    between atoms: _1480  and  _1481
REMARK  692  A    between atoms: _1481  and  _1482
REMARK  693  A    between atoms: _1481  and  _1484
REMARK  694  A    between atoms: _1484  and  _1485
REMARK  695  A    between atoms: _1485  and  _1486
REMARK  696  A    between atoms: _1486  and  _1487
REMARK  697  A    between atoms: _1491  and  _1492
REMARK  698  A    between atoms: _1492  and  _1493
REMARK  699  A    between atoms: _1492  and  _1495
REMARK  700  A    between atoms: _1495  and  _1496
REMARK  701  A    between atoms: _1496  and  _1497
REMARK  702  A    between atoms: _1497  and  _1498
REMARK  703  A    between atoms: _1502  and  _1503
REMARK  704  A    between atoms: _1503  and  _1504
REMARK  705  A    between atoms: _1503  and  _1506
REMARK  706  A    between atoms: _1506  and  _1507
REMARK  707  A    between atoms: _1510  and  _1511
REMARK  708  A    between atoms: _1511  and  _1512
REMARK  709  A    between atoms: _1511  and  _1514
REMARK  710  A    between atoms: _1514  and  _1515
REMARK  711  A    between atoms: _1515  and  _1516
REMARK  712  A    between atoms: _1516  and  _1517
REMARK  713  A    between atoms: _1519  and  _1520
REMARK  714  A    between atoms: _1520  and  _1521
REMARK  715  A    between atoms: _1520  and  _1523
REMARK  716  A    between atoms: _1523  and  _1524
REMARK  717  A    between atoms: _1524  and  _1525
REMARK  718  A    between atoms: _1528  and  _1529
REMARK  719  A    between atoms: _1529  and  _1530
REMARK  720  A    between atoms: _1529  and  _1532
REMARK  721  A    between atoms: _1532  and  _1533
REMARK  722  A    between atoms: _1536  and  _1537
REMARK  723  A    between atoms: _1537  and  _1538
REMARK  724  A    between atoms: _1537  and  _1540
REMARK  725  A    between atoms: _1543  and  _1544
REMARK  726  A    between atoms: _1544  and  _1545
REMARK  727  A    between atoms: _1544  and  _1547
REMARK  728  A    between atoms: _1547  and  _1548
REMARK  729  A    between atoms: _1548  and  _1549
REMARK  730  A    between atoms: _1549  and  _1550
REMARK  731  A    between atoms: _1552  and  _1553
REMARK  732  A    between atoms: _1553  and  _1554
REMARK  733  A    between atoms: _1553  and  _1556
REMARK  734  A    between atoms: _1556  and  _1557
REMARK  735  A    between atoms: _1557  and  _1558
REMARK  736  A    between atoms: _1558  and  _1559
REMARK  737  A    between atoms: _1561  and  _1562
REMARK  738  A    between atoms: _1562  and  _1563
REMARK  739  A    between atoms: _1562  and  _1565
REMARK  740  A    between atoms: _1565  and  _1566
REMARK  741  A    between atoms: _1571  and  _1572
REMARK  742  A    between atoms: _1572  and  _1573
REMARK  743  A    between atoms: _1572  and  _1575
REMARK  744  A    between atoms: _1577  and  _1578
REMARK  745  A    between atoms: _1578  and  _1579
REMARK  746  A    between atoms: _1578  and  _1581
REMARK  747  A    between atoms: _1581  and  _1582
REMARK  748  A    between atoms: _1582  and  _1583
REMARK  749  A    between atoms: _1586  and  _1587
REMARK  750  A    between atoms: _1587  and  _1588
REMARK  751  A    between atoms: _1587  and  _1590
REMARK  752  A    between atoms: _1590  and  _1591
REMARK  753  A    between atoms: _1597  and  _1598
REMARK  754  A    between atoms: _1598  and  _1599
REMARK  755  A    between atoms: _1598  and  _1601
REMARK  756  A    between atoms: _1601  and  _1602
REMARK  757  A    between atoms: _1605  and  _1606
REMARK  758  A    between atoms: _1606  and  _1607
REMARK  759  A    between atoms: _1609  and  _1610
REMARK  760  A    between atoms: _1610  and  _1611
REMARK  761  A    between atoms: _1610  and  _1613
REMARK  762  A    between atoms: _1613  and  _1614
REMARK  763  A    between atoms: _1622  and  _1623
REMARK  764  A    between atoms: _1628  and  _1629
REMARK  765  A    between atoms: _1629  and  _1630
REMARK  766  A    between atoms: _1629  and  _1632
REMARK  767  A    between atoms: _1632  and  _1633
REMARK  768  A    between atoms: _1636  and  _1637
REMARK  769  A    between atoms: _1637  and  _1638
REMARK  770  A    between atoms: _1637  and  _1640
REMARK  771  A    between atoms: _1643  and  _1644
REMARK  772  A    between atoms: _1644  and  _1645
REMARK  773  A    between atoms: _1644  and  _1647
REMARK  774  A    between atoms: _1647  and  _1648
REMARK  775  A    between atoms: _1651  and  _1652
REMARK  776  A    between atoms: _1652  and  _1653
REMARK  777  A    between atoms: _1652  and  _1655
REMARK  778  A    between atoms: _1655  and  _1656
REMARK  779  A    between atoms: _1662  and  _1663
REMARK  780  A    between atoms: _1663  and  _1664
REMARK  781  A    between atoms: _1663  and  _1666
REMARK  782  A    between atoms: _1669  and  _1670
REMARK  783  A    between atoms: _1670  and  _1671
REMARK  784  A    between atoms: _1670  and  _1673
REMARK  785  A    between atoms: _1673  and  _1674
REMARK  786  A    between atoms: _1674  and  _1675
REMARK                            x       y       z     vdW  Elec       q    Type
REMARK                         _______ _______ _______ _____ _____    ______ ____
ROOT
ATOM      1  CA  ILE A  11      14.519  13.820  21.175  0.00  0.00    +0.173 C 
ENDROOT
BRANCH   1   3
ATOM      2  C   GLU A  10      16.631  12.795  20.457  0.00  0.00    +0.262 C 
ATOM      3  N   ILE A  11      15.839  13.242  21.438  0.00  0.00    -0.196 NA
ATOM      4  O   GLU A  10      16.297  12.805  19.267  0.00  0.00    -0.271 OA
BRANCH   2   5
ATOM      5  CA  GLU A  10      17.998  12.239  20.878  0.00  0.00    +0.173 C 
BRANCH   5   7
ATOM      6  C   ALA A   9      18.922  14.258  21.862  0.00  0.00    +0.262 C 
ATOM      7  N   GLU A  10      18.594  12.983  21.997  0.00  0.00    -0.196 NA
ATOM      8  O   ALA A   9      18.706  14.916  20.843  0.00  0.00    -0.271 OA
BRANCH   6   9
ATOM      9  CA  ALA A   9      19.551  14.913  23.083  0.00  0.00    +0.173 C 
ATOM     10  CB  ALA A   9      21.055  14.609  23.107  0.00  0.00    +0.033 C 
BRANCH   9  12
ATOM     11  C   GLN A   8      17.610  14.660  24.531  0.00  0.00    +0.262 C 
ATOM     12  N   ALA A   9      18.939  14.522  24.353  0.00  0.00    -0.196 NA
ATOM     13  O   GLN A   8      16.837  14.996  23.618  0.00  0.00    -0.271 OA
BRANCH  11  14
ATOM     14  CA  GLN A   8      17.054  14.348  25.917  0.00  0.00    +0.173 C 
BRANCH  14  16
ATOM     15  C   PHE A   7      16.024  16.532  26.058  0.00  0.00    +0.262 C 
ATOM     16  N   GLN A   8      15.890  15.203  26.121  0.00  0.00    -0.196 NA
ATOM     17  O   PHE A   7      17.152  17.103  25.936  0.00  0.00    -0.271 OA
BRANCH  15  18
ATOM     18  CA  PHE A   7      14.737  17.365  26.025  0.00  0.00    +0.177 C 
BRANCH  18  21
ATOM     19  C   ALA A   6      15.279  18.620  27.971  0.00  0.00    +0.262 C 
ATOM     20  O   ALA A   6      15.216  17.601  28.662  0.00  0.00    -0.271 OA
ATOM     21  N   PHE A   7      14.981  18.648  26.668  0.00  0.00    -0.196 NA
BRANCH  19  22
ATOM     22  CA  ALA A   6      15.771  19.926  28.573  0.00  0.00    +0.173 C 
ATOM     23  CB  ALA A   6      17.272  19.808  28.744  0.00  0.00    +0.033 C 
BRANCH  22  25
ATOM     24  C   PHE A   5      13.960  20.753  29.920  0.00  0.00    +0.262 C 
ATOM     25  N   ALA A   6      15.139  20.113  29.862  0.00  0.00    -0.196 NA
ATOM     26  O   PHE A   5      13.394  21.227  28.937  0.00  0.00    -0.271 OA
BRANCH  24  27
ATOM     27  CA  PHE A   5      13.272  20.795  31.275  0.00  0.00    +0.177 C 
BRANCH  27  30
ATOM     28  C   THR A   4      12.564  22.870  32.397  0.00  0.00    +0.264 C 
ATOM     29  O   THR A   4      13.410  22.740  33.275  0.00  0.00    -0.271 OA
ATOM     30  N   PHE A   5      12.437  21.964  31.383  0.00  0.00    -0.196 NA
BRANCH  28  31
ATOM     31  CA  THR A   4      11.587  24.028  32.420  0.00  0.00    +0.203 C 
BRANCH  31  32
ATOM     32  CB  THR A   4      12.260  25.341  31.972  0.00  0.00    +0.181 C 
ATOM     33  OG1 THR A   4      11.312  26.401  32.033  0.00  0.00    -0.221 OA
ATOM     34  CG2 THR A   4      12.755  25.245  30.538  0.00  0.00    +0.038 C 
ENDBRANCH  31  32
BRANCH  31  36
ATOM     35  C   GLU A   3       9.750  23.849  34.064  0.00  0.00    +0.262 C 
ATOM     36  N   THR A   4      11.025  24.171  33.762  0.00  0.00    -0.194 NA
ATOM     37  O   GLU A   3       8.935  23.462  33.210  0.00  0.00    -0.271 OA
BRANCH  35  38
ATOM     38  CA  GLU A   3       9.294  24.024  35.525  0.00  0.00    +0.173 C 
BRANCH  38  41
ATOM     39  C   VAL A   2       7.919  26.031  35.843  0.00  0.00    +0.262 C 
ATOM     40  O   VAL A   2       8.890  26.737  36.115  0.00  0.00    -0.271 OA
ATOM     41  N   GLU A   3       8.024  24.729  35.563  0.00  0.00    -0.196 NA
BRANCH  39  42
ATOM     42  CA  VAL A   2       6.527  26.654  35.810  0.00  0.00    +0.173 C 
BRANCH  42  45
ATOM     43  C   GLU A   1       5.777  26.484  38.176  0.00  0.00    +0.259 C 
ATOM     44  O   GLU A   1       5.505  25.285  38.097  0.00  0.00    -0.272 OA
ATOM     45  N   VAL A   2       6.244  27.206  37.145  0.00  0.00    -0.197 NA
BRANCH  43  47
ATOM     46  N   GLU A   1       4.200  27.112  39.966  0.00  0.00    -0.123 NA
ATOM     47  CA  GLU A   1       5.573  27.232  39.493  0.00  0.00    +0.170 C 
BRANCH  47  48
ATOM     48  CB  GLU A   1       6.564  26.727  40.554  0.00  0.00    +0.040 C 
BRANCH  48  49
ATOM     49  CG  GLU A   1       6.964  27.783  41.573  0.00  0.00    +0.116 C 
BRANCH  49  50
ATOM     50  CD  GLU A   1       7.990  27.364  42.612  0.00  0.00    +0.365 C 
ATOM     51  OE2 GLU A   1       7.988  27.965  43.711  0.00  0.00    -0.246 OA
ATOM     52  OE1 GLU A   1       8.817  26.469  42.323  0.00  0.00    -0.246 OA
ENDBRANCH  49  50
ENDBRANCH  48  49
ENDBRANCH  47  48
ENDBRANCH  43  47
ENDBRANCH  42  45
BRANCH  42  53
ATOM     53  CB  VAL A   2       6.439  27.720  34.689  0.00  0.00    +0.029 C 
ATOM     54  CG2 VAL A   2       5.110  28.470  34.734  0.00  0.00    +0.002 C 
ATOM     55  CG1 VAL A   2       6.656  27.083  33.310  0.00  0.00    +0.002 C 
ENDBRANCH  42  53
ENDBRANCH  39  42
ENDBRANCH  38  41
BRANCH  38  56
ATOM     56  CB  GLU A   3       9.215  22.670  36.208  0.00  0.00    +0.043 C 
BRANCH  56  57
ATOM     57  CG  GLU A   3       8.909  22.754  37.698  0.00  0.00    +0.116 C 
BRANCH  57  58
ATOM     58  CD  GLU A   3       8.810  21.372  38.298  0.00  0.00    +0.365 C 
ATOM     59  OE2 GLU A   3       9.682  21.002  39.113  0.00  0.00    -0.246 OA
ATOM     60  OE1 GLU A   3       7.880  20.630  37.907  0.00  0.00    -0.246 OA
ENDBRANCH  57  58
ENDBRANCH  56  57
ENDBRANCH  38  56
ENDBRANCH  35  38
ENDBRANCH  31  36
ENDBRANCH  28  31
ENDBRANCH  27  30
BRANCH  27  61
ATOM     61  CB  PHE A   5      12.371  19.539  31.352  0.00  0.00    +0.057 C 
BRANCH  61  62
ATOM     62  CG  PHE A   5      11.557  19.387  32.608  0.00  0.00    -0.020 A 
ATOM     63  CD2 PHE A   5      11.973  18.534  33.615  0.00  0.00    -0.004 A 
ATOM     64  CE2 PHE A   5      11.204  18.374  34.779  0.00  0.00    -0.000 A 
ATOM     65  CZ  PHE A   5      10.042  19.086  34.928  0.00  0.00    -0.000 A 
ATOM     66  CE1 PHE A   5       9.587  19.910  33.937  0.00  0.00    -0.000 A 
ATOM     67  CD1 PHE A   5      10.361  20.084  32.776  0.00  0.00    -0.004 A 
ENDBRANCH  61  62
ENDBRANCH  27  61
ENDBRANCH  24  27
ENDBRANCH  22  25
ENDBRANCH  19  22
ENDBRANCH  18  21
BRANCH  18  68
ATOM     68  CB  PHE A   7      14.411  17.570  24.542  0.00  0.00    +0.057 C 
BRANCH  68  69
ATOM     69  CG  PHE A   7      13.016  18.093  24.285  0.00  0.00    -0.020 A 
ATOM     70  CD2 PHE A   7      11.904  17.313  24.572  0.00  0.00    -0.004 A 
ATOM     71  CE2 PHE A   7      10.619  17.787  24.322  0.00  0.00    -0.000 A 
ATOM     72  CZ  PHE A   7      10.435  19.046  23.815  0.00  0.00    -0.000 A 
ATOM     73  CE1 PHE A   7      11.534  19.840  23.530  0.00  0.00    -0.000 A 
ATOM     74  CD1 PHE A   7      12.815  19.353  23.765  0.00  0.00    -0.004 A 
ENDBRANCH  68  69
ENDBRANCH  18  68
ENDBRANCH  15  18
ENDBRANCH  14  16
BRANCH  14  75
ATOM     75  CB  GLN A   8      16.665  12.868  25.986  0.00  0.00    +0.041 C 
BRANCH  75  76
ATOM     76  CG  GLN A   8      16.437  12.374  27.391  0.00  0.00    +0.091 C 
BRANCH  76  77
ATOM     77  CD  GLN A   8      15.889  10.969  27.322  0.00  0.00    +0.261 C 
ATOM     78  NE2 GLN A   8      16.758   9.969  27.357  0.00  0.00    -0.088 NA
ATOM     79  OE1 GLN A   8      14.689  10.763  27.171  0.00  0.00    -0.272 OA
ENDBRANCH  76  77
ENDBRANCH  75  76
ENDBRANCH  14  75
ENDBRANCH  11  14
ENDBRANCH   9  12
ENDBRANCH   6   9
ENDBRANCH   5   7
BRANCH   5  80
ATOM     80  CB  GLU A  10      17.889  10.747  21.206  0.00  0.00    +0.043 C 
BRANCH  80  81
ATOM     81  CG  GLU A  10      19.236  10.064  21.439  0.00  0.00    +0.116 C 
BRANCH  81  82
ATOM     82  CD  GLU A  10      19.881  10.210  22.809  0.00  0.00    +0.365 C 
ATOM     83  OE2 GLU A  10      19.305  10.900  23.683  0.00  0.00    -0.246 OA
ATOM     84  OE1 GLU A  10      20.978   9.635  23.004  0.00  0.00    -0.246 OA
ENDBRANCH  81  82
ENDBRANCH  80  81
ENDBRANCH   5  80
ENDBRANCH   2   5
ENDBRANCH   1   3
BRANCH   1  85
ATOM     85  C   ILE A  11      14.685  15.200  20.550  0.00  0.00    +0.262 C 
ATOM     86  N   ALA A  12      15.650  15.996  21.034  0.00  0.00    -0.196 NA
ATOM     87  O   ILE A  11      13.952  15.551  19.631  0.00  0.00    -0.271 OA
BRANCH  86  88
ATOM     88  CA  ALA A  12      15.888  17.281  20.388  0.00  0.00    +0.173 C 
ATOM     89  CB  ALA A  12      16.978  18.047  21.126  0.00  0.00    +0.033 C 
BRANCH  88  90
ATOM     90  C   ALA A  12      16.298  17.060  18.913  0.00  0.00    +0.262 C 
ATOM     91  N   GLN A  13      17.091  15.995  18.652  0.00  0.00    -0.196 NA
ATOM     92  O   ALA A  12      15.900  17.839  18.052  0.00  0.00    -0.271 OA
BRANCH  91  93
ATOM     93  CA  GLN A  13      17.537  15.610  17.305  0.00  0.00    +0.173 C 
BRANCH  93  94
ATOM     94  C   GLN A  13      16.334  15.246  16.456  0.00  0.00    +0.262 C 
ATOM     95  N   LEU A  14      15.417  14.415  17.009  0.00  0.00    -0.196 NA
ATOM     96  O   GLN A  13      16.236  15.729  15.324  0.00  0.00    -0.271 OA
BRANCH  95  97
ATOM     97  CA  LEU A  14      14.175  14.007  16.312  0.00  0.00    +0.173 C 
BRANCH  97  98
ATOM     98  C   LEU A  14      13.348  15.233  15.930  0.00  0.00    +0.262 C 
ATOM     99  N   MET A  15      13.171  16.159  16.883  0.00  0.00    -0.196 NA
ATOM    100  O   LEU A  14      12.897  15.370  14.790  0.00  0.00    -0.271 OA
BRANCH  99 101
ATOM    101  CA  MET A  15      12.374  17.359  16.629  0.00  0.00    +0.174 C 
BRANCH 101 102
ATOM    102  C   MET A  15      13.018  18.252  15.571  0.00  0.00    +0.262 C 
ATOM    103  N   UNK A  16      14.359  18.372  15.587  0.00  0.00    -0.194 NA
ATOM    104  O   MET A  15      12.313  18.780  14.705  0.00  0.00    -0.271 OA
BRANCH 103 105
ATOM    105  C   UNK A  16      15.055  19.197  14.591  0.00  0.00    +0.205 C 
BRANCH 105 106
ATOM    106  C   UNK A  16      14.898  18.573  13.197  0.00  0.00    +0.264 C 
ATOM    107  N   UNK A  16      14.964  17.241  13.114  0.00  0.00    -0.196 NA
ATOM    108  O   UNK A  16      14.633  19.302  12.241  0.00  0.00    -0.271 OA
BRANCH 107 109
ATOM    109  C   UNK A  16      14.774  16.513  11.854  0.00  0.00    +0.173 C 
BRANCH 109 110
ATOM    110  C   UNK A  16      13.356  16.793  11.325  0.00  0.00    +0.262 C 
ATOM    111  N   UNK A  16      12.346  16.694  12.208  0.00  0.00    -0.196 NA
ATOM    112  O   UNK A  16      13.174  17.084  10.145  0.00  0.00    -0.271 OA
BRANCH 111 113
ATOM    113  C   UNK A  16      10.950  16.902  11.801  0.00  0.00    +0.173 C 
BRANCH 113 114
ATOM    114  C   UNK A  16      10.714  18.318  11.319  0.00  0.00    +0.262 C 
ATOM    115  N   UNK A  16      11.319  19.304  11.983  0.00  0.00    -0.196 NA
ATOM    116  O   UNK A  16       9.979  18.522  10.338  0.00  0.00    -0.271 OA
BRANCH 115 117
ATOM    117  C   UNK A  16      11.144  20.700  11.630  0.00  0.00    +0.173 C 
BRANCH 117 118
ATOM    118  C   UNK A  16      11.937  21.095  10.382  0.00  0.00    +0.262 C 
ATOM    119  N   UNK A  16      13.159  20.547  10.209  0.00  0.00    -0.196 NA
ATOM    120  O   UNK A  16      11.462  21.941   9.625  0.00  0.00    -0.271 OA
BRANCH 119 121
ATOM    121  C   UNK A  16      14.050  20.998   9.142  0.00  0.00    +0.182 C 
BRANCH 121 122
ATOM    122  C   UNK A  16      14.045  20.168   7.868  0.00  0.00    +0.262 C 
ATOM    123  N   UNK A  16      13.640  18.892   7.908  0.00  0.00    -0.194 NA
ATOM    124  O   UNK A  16      14.460  20.705   6.837  0.00  0.00    -0.271 OA
BRANCH 123 125
ATOM    125  C   UNK A  16      13.647  18.064   6.682  0.00  0.00    +0.203 C 
BRANCH 125 126
ATOM    126  C   UNK A  16      12.578  18.535   5.692  0.00  0.00    +0.264 C 
ATOM    127  O   UNK A  16      11.429  18.741   6.084  0.00  0.00    -0.271 OA
ATOM    128  N   UNK A  16      12.930  18.661   4.388  0.00  0.00    -0.204 NA
BRANCH 128 129
ATOM    129  C   UNK A  16      11.926  18.981   3.377  0.00  0.00    +0.120 C 
BRANCH 129 130
ATOM    130  C   UNK A  16      12.574  19.414   2.050  0.00  0.00    +0.050 C 
BRANCH 130 131
ATOM    131  C   UNK A  16      11.518  19.684   1.002  0.00  0.00    -0.020 A 
ATOM    132  C   UNK A  16      10.797  20.867   1.008  0.00  0.00    -0.004 A 
ATOM    133  C   UNK A  16       9.795  21.103   0.058  0.00  0.00    -0.000 A 
ATOM    134  C   UNK A  16       9.529  20.157  -0.904  0.00  0.00    -0.000 A 
ATOM    135  C   UNK A  16      10.228  18.973  -0.918  0.00  0.00    -0.000 A 
ATOM    136  C   UNK A  16      11.234  18.742   0.016  0.00  0.00    -0.004 A 
ENDBRANCH 130 131
ENDBRANCH 129 130
ENDBRANCH 128 129
ENDBRANCH 125 126
BRANCH 125 137
ATOM    137  C   UNK A  16      13.452  16.573   7.022  0.00  0.00    +0.181 C 
ATOM    138  O   UNK A  16      14.469  16.170   7.948  0.00  0.00    -0.221 OA
ATOM    139  C   UNK A  16      13.499  15.655   5.780  0.00  0.00    +0.038 C 
ENDBRANCH 125 137
ENDBRANCH 123 125
ENDBRANCH 121 122
BRANCH 121 140
ATOM    140  C   UNK A  16      15.476  21.127   9.685  0.00  0.00    +0.120 C 
BRANCH 140 141
ATOM    141  C   UNK A  16      15.572  22.158  10.779  0.00  0.00    +0.263 C 
ATOM    142  N   UNK A  16      16.311  21.838  11.834  0.00  0.00    -0.088 NA
ATOM    143  O   UNK A  16      15.005  23.253  10.687  0.00  0.00    -0.272 OA
ENDBRANCH 140 141
ENDBRANCH 121 140
ENDBRANCH 119 121
ENDBRANCH 117 118
BRANCH 117 144
ATOM    144  C   UNK A  16      11.523  21.599  12.845  0.00  0.00    +0.029 C 
ATOM    145  C   UNK A  16      11.626  23.105  12.479  0.00  0.00    +0.002 C 
BRANCH 144 146
ATOM    146  C   UNK A  16      10.473  21.389  13.972  0.00  0.00    +0.002 C 
ATOM    147  C   UNK A  16      10.929  21.837  15.335  0.00  0.00    +0.000 C 
ENDBRANCH 144 146
ENDBRANCH 117 144
ENDBRANCH 115 117
ENDBRANCH 113 114
BRANCH 113 148
ATOM    148  C   UNK A  16       9.998  16.486  12.961  0.00  0.00    +0.029 C 
ATOM    149  C   UNK A  16       8.558  17.020  12.738  0.00  0.00    +0.002 C 
BRANCH 148 150
ATOM    150  C   UNK A  16      10.000  14.964  13.108  0.00  0.00    +0.002 C 
ATOM    151  C   UNK A  16       9.379  14.427  14.420  0.00  0.00    +0.000 C 
ENDBRANCH 148 150
ENDBRANCH 113 148
ENDBRANCH 111 113
ENDBRANCH 109 110
BRANCH 109 152
ATOM    152  C   UNK A  16      14.970  14.998  12.066  0.00  0.00    +0.031 C 
BRANCH 152 153
ATOM    153  C   UNK A  16      14.864  14.123  10.815  0.00  0.00    +0.002 C 
ATOM    154  C   UNK A  16      13.546  13.353  10.798  0.00  0.00    +0.000 C 
ATOM    155  C   UNK A  16      16.048  13.167  10.724  0.00  0.00    +0.000 C 
ENDBRANCH 152 153
ENDBRANCH 109 152
ENDBRANCH 107 109
ENDBRANCH 105 106
BRANCH 105 156
ATOM    156  C   UNK A  16      16.533  19.336  14.963  0.00  0.00    +0.213 C 
ATOM    157  O   UNK A  16      17.203  20.345  14.212  0.00  0.00    -0.218 OA
ENDBRANCH 105 156
ENDBRANCH 103 105
ENDBRANCH 101 102
BRANCH 101 158
ATOM    158  CB  MET A  15      12.123  18.097  17.953  0.00  0.00    +0.043 C 
BRANCH 158 159
ATOM    159  CG  MET A  15      11.226  17.295  18.880  0.00  0.00    +0.060 C 
BRANCH 159 160
ATOM    160  SD  MET A  15      11.065  18.089  20.507  0.00  0.00    -0.139 S 
ATOM    161  CE  MET A  15       9.904  19.444  20.128  0.00  0.00    +0.069 C 
ENDBRANCH 159 160
ENDBRANCH 158 159
ENDBRANCH 101 158
ENDBRANCH  99 101
ENDBRANCH  97  98
BRANCH  97 162
ATOM    162  CB  LEU A  14      13.350  13.075  17.223  0.00  0.00    +0.031 C 
BRANCH 162 163
ATOM    163  CG  LEU A  14      11.923  12.656  16.745  0.00  0.00    +0.002 C 
ATOM    164  CD2 LEU A  14      11.151  11.953  17.863  0.00  0.00    +0.000 C 
ATOM    165  CD1 LEU A  14      11.981  11.704  15.541  0.00  0.00    +0.000 C 
ENDBRANCH 162 163
ENDBRANCH  97 162
ENDBRANCH  95  97
ENDBRANCH  93  94
BRANCH  93 166
ATOM    166  CB  GLN A  13      18.537  14.429  17.380  0.00  0.00    +0.041 C 
BRANCH 166 167
ATOM    167  CG  GLN A  13      19.974  14.853  17.686  0.00  0.00    +0.091 C 
BRANCH 167 168
ATOM    168  CD  GLN A  13      20.790  13.792  18.407  0.00  0.00    +0.261 C 
ATOM    169  NE2 GLN A  13      21.734  14.237  19.229  0.00  0.00    -0.088 NA
ATOM    170  OE1 GLN A  13      20.603  12.577  18.232  0.00  0.00    -0.272 OA
ENDBRANCH 167 168
ENDBRANCH 166 167
ENDBRANCH  93 166
ENDBRANCH  91  93
ENDBRANCH  88  90
ENDBRANCH  86  88
ENDBRANCH   1  85
BRANCH   1 171
ATOM    171  CB  ILE A  11      13.638  13.790  22.453  0.00  0.00    +0.029 C 
ATOM    172  CG2 ILE A  11      12.406  14.678  22.289  0.00  0.00    +0.002 C 
BRANCH 171 173
ATOM    173  CG1 ILE A  11      13.142  12.357  22.735  0.00  0.00    +0.002 C 
ATOM    174  CD1 ILE A  11      14.157  11.280  23.149  0.00  0.00    +0.000 C 
ENDBRANCH 171 173
ENDBRANCH   1 171
TORSDOF 82
REMARK  Name = /Users/mlugowska/PhD/ML_residence_time_prediction/protein_files/5J64_protein.pdb
REMARK  786 active torsions:
REMARK  status: ('A' for Active; 'I' for Inactive)
REMARK    1  A    between atoms: _2  and  _3
REMARK    2  A    between atoms: _2  and  _5
REMARK    3  A    between atoms: _5  and  _6
REMARK    4  A    between atoms: _6  and  _7
REMARK    5  A    between atoms: _10  and  _11
REMARK    6  A    between atoms: _11  and  _12
REMARK    7  A    between atoms: _11  and  _14
REMARK    8  A    between atoms: _17  and  _18
REMARK    9  A    between atoms: _18  and  _19
REMARK   10  A    between atoms: _18  and  _21
REMARK   11  A    between atoms: _21  and  _22
REMARK   12  A    between atoms: _22  and  _23
REMARK   13  A    between atoms: _26  and  _27
REMARK   14  A    between atoms: _27  and  _28
REMARK   15  A    between atoms: _27  and  _30
REMARK   16  A    between atoms: _33  and  _34
REMARK   17  A    between atoms: _34  and  _35
REMARK   18  A    between atoms: _34  and  _37
REMARK   19  A    between atoms: _37  and  _38
REMARK   20  A    between atoms: _44  and  _45
REMARK   21  A    between atoms: _45  and  _46
REMARK   22  A    between atoms: _49  and  _50
REMARK   23  A    between atoms: _50  and  _51
REMARK   24  A    between atoms: _50  and  _53
REMARK   25  A    between atoms: _53  and  _54
REMARK   26  A    between atoms: _60  and  _61
REMARK   27  A    between atoms: _61  and  _62
REMARK   28  A    between atoms: _61  and  _64
REMARK   29  A    between atoms: _64  and  _65
REMARK   30  A    between atoms: _65  and  _66
REMARK   31  A    between atoms: _69  and  _70
REMARK   32  A    between atoms: _70  and  _71
REMARK   33  A    between atoms: _74  and  _75
REMARK   34  A    between atoms: _75  and  _76
REMARK   35  A    between atoms: _75  and  _78
REMARK   36  A    between atoms: _78  and  _79
REMARK   37  A    between atoms: _79  and  _80
REMARK   38  A    between atoms: _83  and  _84
REMARK   39  A    between atoms: _84  and  _85
REMARK   40  A    between atoms: _84  and  _87
REMARK   41  A    between atoms: _87  and  _88
REMARK   42  A    between atoms: _91  and  _92
REMARK   43  A    between atoms: _92  and  _93
REMARK   44  A    between atoms: _96  and  _97
REMARK   45  A    between atoms: _97  and  _98
REMARK   46  A    between atoms: _97  and  _100
REMARK   47  A    between atoms: _100  and  _101
REMARK   48  A    between atoms: _101  and  _102
REMARK   49  A    between atoms: _105  and  _106
REMARK   50  A    between atoms: _106  and  _107
REMARK   51  A    between atoms: _106  and  _109
REMARK   52  A    between atoms: _109  and  _110
REMARK   53  A    between atoms: _113  and  _114
REMARK   54  A    between atoms: _114  and  _115
REMARK   55  A    between atoms: _114  and  _117
REMARK   56  A    between atoms: _117  and  _118
REMARK   57  A    between atoms: _118  and  _119
REMARK   58  A    between atoms: _121  and  _122
REMARK   59  A    between atoms: _122  and  _123
REMARK   60  A    between atoms: _122  and  _125
REMARK   61  A    between atoms: _127  and  _128
REMARK   62  A    between atoms: _128  and  _129
REMARK   63  A    between atoms: _128  and  _131
REMARK   64  A    between atoms: _131  and  _132
REMARK   65  A    between atoms: _135  and  _136
REMARK   66  A    between atoms: _136  and  _137
REMARK   67  A    between atoms: _136  and  _139
REMARK   68  A    between atoms: _139  and  _140
REMARK   69  A    between atoms: _143  and  _144
REMARK   70  A    between atoms: _144  and  _145
REMARK   71  A    between atoms: _144  and  _147
REMARK   72  A    between atoms: _147  and  _148
REMARK   73  A    between atoms: _151  and  _152
REMARK   74  A    between atoms: _152  and  _153
REMARK   75  A    between atoms: _152  and  _155
REMARK   76  A    between atoms: _155  and  _156
REMARK   77  A    between atoms: _159  and  _160
REMARK   78  A    between atoms: _160  and  _161
REMARK   79  A    between atoms: _160  and  _163
REMARK   80  A    between atoms: _166  and  _167
REMARK   81  A    between atoms: _167  and  _170
REMARK   82  A    between atoms: _170  and  _171
REMARK   83  A    between atoms: _181  and  _183
REMARK   84  A    between atoms: _183  and  _184
REMARK   85  A    between atoms: _189  and  _194
REMARK   86  A    between atoms: _192  and  _195
REMARK   87  A    between atoms: _193  and  _194
REMARK   88  A    between atoms: _195  and  _196
REMARK   89  A    between atoms: _201  and  _202
REMARK   90  A    between atoms: _202  and  _203
REMARK   91  A    between atoms: _202  and  _205
REMARK   92  A    between atoms: _207  and  _208
REMARK   93  A    between atoms: _208  and  _209
REMARK   94  A    between atoms: _208  and  _211
REMARK   95  A    between atoms: _211  and  _212
REMARK   96  A    between atoms: _215  and  _216
REMARK   97  A    between atoms: _216  and  _217
REMARK   98  A    between atoms: _216  and  _219
REMARK   99  A    between atoms: _219  and  _220
REMARK  100  A    between atoms: _220  and  _221
REMARK  101  A    between atoms: _221  and  _222
REMARK  102  A    between atoms: _224  and  _225
REMARK  103  A    between atoms: _225  and  _226
REMARK  104  A    between atoms: _225  and  _228
REMARK  105  A    between atoms: _228  and  _229
REMARK  106  A    between atoms: _229  and  _230
REMARK  107  A    between atoms: _233  and  _234
REMARK  108  A    between atoms: _234  and  _235
REMARK  109  A    between atoms: _234  and  _237
REMARK  110  A    between atoms: _237  and  _238
REMARK  111  A    between atoms: _241  and  _242
REMARK  112  A    between atoms: _242  and  _243
REMARK  113  A    between atoms: _242  and  _245
REMARK  114  A    between atoms: _245  and  _246
REMARK  115  A    between atoms: _252  and  _253
REMARK  116  A    between atoms: _253  and  _254
REMARK  117  A    between atoms: _253  and  _256
REMARK  118  A    between atoms: _256  and  _257
REMARK  119  A    between atoms: _260  and  _261
REMARK  120  A    between atoms: _261  and  _262
REMARK  121  A    between atoms: _261  and  _264
REMARK  122  A    between atoms: _264  and  _265
REMARK  123  A    between atoms: _265  and  _266
REMARK  124  A    between atoms: _266  and  _267
REMARK  125  A    between atoms: _271  and  _272
REMARK  126  A    between atoms: _272  and  _273
REMARK  127  A    between atoms: _272  and  _275
REMARK  128  A    between atoms: _275  and  _276
REMARK  129  A    between atoms: _276  and  _277
REMARK  130  A    between atoms: _280  and  _281
REMARK  131  A    between atoms: _281  and  _282
REMARK  132  A    between atoms: _281  and  _284
REMARK  133  A    between atoms: _284  and  _285
REMARK  134  A    between atoms: _288  and  _289
REMARK  135  A    between atoms: _289  and  _292
REMARK  136  A    between atoms: _292  and  _293
REMARK  137  A    between atoms: _309  and  _310
REMARK  138  A    between atoms: _309  and  _312
REMARK  139  A    between atoms: _312  and  _313
REMARK  140  A    between atoms: _316  and  _317
REMARK  141  A    between atoms: _317  and  _318
REMARK  142  A    between atoms: _317  and  _320
REMARK  143  A    between atoms: _322  and  _323
REMARK  144  A    between atoms: _323  and  _324
REMARK  145  A    between atoms: _323  and  _326
REMARK  146  A    between atoms: _328  and  _329
REMARK  147  A    between atoms: _329  and  _330
REMARK  148  A    between atoms: _329  and  _332
REMARK  149  A    between atoms: _332  and  _333
REMARK  150  A    between atoms: _336  and  _337
REMARK  151  A    between atoms: _337  and  _338
REMARK  152  A    between atoms: _341  and  _342
REMARK  153  A    between atoms: _342  and  _343
REMARK  154  A    between atoms: _342  and  _345
REMARK  155  A    between atoms: _345  and  _346
REMARK  156  A    between atoms: _349  and  _350
REMARK  157  A    between atoms: _350  and  _351
REMARK  158  A    between atoms: _350  and  _353
REMARK  159  A    between atoms: _353  and  _354
REMARK  160  A    between atoms: _357  and  _358
REMARK  161  A    between atoms: _358  and  _359
REMARK  162  A    between atoms: _358  and  _361
REMARK  163  A    between atoms: _361  and  _362
REMARK  164  A    between atoms: _362  and  _363
REMARK  165  A    between atoms: _363  and  _364
REMARK  166  A    between atoms: _366  and  _367
REMARK  167  A    between atoms: _367  and  _368
REMARK  168  A    between atoms: _367  and  _370
REMARK  169  A    between atoms: _370  and  _371
REMARK  170  A    between atoms: _374  and  _375
REMARK  171  A    between atoms: _375  and  _376
REMARK  172  A    between atoms: _375  and  _378
REMARK  173  A    between atoms: _378  and  _379
REMARK  174  A    between atoms: _379  and  _380
REMARK  175  A    between atoms: _380  and  _381
REMARK  176  A    between atoms: _385  and  _386
REMARK  177  A    between atoms: _386  and  _387
REMARK  178  A    between atoms: _386  and  _389
REMARK  179  A    between atoms: _389  and  _390
REMARK  180  A    between atoms: _397  and  _398
REMARK  181  A    between atoms: _398  and  _399
REMARK  182  A    between atoms: _398  and  _401
REMARK  183  A    between atoms: _401  and  _402
REMARK  184  A    between atoms: _402  and  _403
REMARK  185  A    between atoms: _406  and  _407
REMARK  186  A    between atoms: _407  and  _408
REMARK  187  A    between atoms: _407  and  _410
REMARK  188  A    between atoms: _412  and  _413
REMARK  189  A    between atoms: _413  and  _414
REMARK  190  A    between atoms: _413  and  _416
REMARK  191  A    between atoms: _416  and  _417
REMARK  192  A    between atoms: _420  and  _421
REMARK  193  A    between atoms: _421  and  _422
REMARK  194  A    between atoms: _421  and  _424
REMARK  195  A    between atoms: _427  and  _428
REMARK  196  A    between atoms: _428  and  _429
REMARK  197  A    between atoms: _428  and  _431
REMARK  198  A    between atoms: _431  and  _432
REMARK  199  A    between atoms: _436  and  _437
REMARK  200  A    between atoms: _442  and  _443
REMARK  201  A    between atoms: _443  and  _444
REMARK  202  A    between atoms: _443  and  _446
REMARK  203  A    between atoms: _448  and  _449
REMARK  204  A    between atoms: _449  and  _450
REMARK  205  A    between atoms: _449  and  _452
REMARK  206  A    between atoms: _452  and  _453
REMARK  207  A    between atoms: _453  and  _454
REMARK  208  A    between atoms: _454  and  _455
REMARK  209  A    between atoms: _457  and  _458
REMARK  210  A    between atoms: _458  and  _459
REMARK  211  A    between atoms: _458  and  _461
REMARK  212  A    between atoms: _461  and  _462
REMARK  213  A    between atoms: _465  and  _466
REMARK  214  A    between atoms: _466  and  _467
REMARK  215  A    between atoms: _466  and  _469
REMARK  216  A    between atoms: _469  and  _470
REMARK  217  A    between atoms: _473  and  _474
REMARK  218  A    between atoms: _474  and  _475
REMARK  219  A    between atoms: _474  and  _477
REMARK  220  A    between atoms: _479  and  _480
REMARK  221  A    between atoms: _480  and  _481
REMARK  222  A    between atoms: _483  and  _484
REMARK  223  A    between atoms: _484  and  _485
REMARK  224  A    between atoms: _484  and  _487
REMARK  225  A    between atoms: _487  and  _488
REMARK  226  A    between atoms: _488  and  _489
REMARK  227  A    between atoms: _489  and  _490
REMARK  228  A    between atoms: _492  and  _493
REMARK  229  A    between atoms: _493  and  _494
REMARK  230  A    between atoms: _493  and  _496
REMARK  231  A    between atoms: _496  and  _497
REMARK  232  A    between atoms: _497  and  _498
REMARK  233  A    between atoms: _501  and  _502
REMARK  234  A    between atoms: _502  and  _503
REMARK  235  A    between atoms: _502  and  _505
REMARK  236  A    between atoms: _505  and  _506
REMARK  237  A    between atoms: _509  and  _510
REMARK  238  A    between atoms: _510  and  _511
REMARK  239  A    between atoms: _510  and  _513
REMARK  240  A    between atoms: _513  and  _514
REMARK  241  A    between atoms: _519  and  _520
REMARK  242  A    between atoms: _520  and  _521
REMARK  243  A    between atoms: _520  and  _523
REMARK  244  A    between atoms: _523  and  _524
REMARK  245  A    between atoms: _527  and  _528
REMARK  246  A    between atoms: _528  and  _529
REMARK  247  A    between atoms: _528  and  _531
REMARK  248  A    between atoms: _531  and  _532
REMARK  249  A    between atoms: _535  and  _536
REMARK  250  A    between atoms: _536  and  _537
REMARK  251  A    between atoms: _536  and  _539
REMARK  252  A    between atoms: _539  and  _540
REMARK  253  A    between atoms: _543  and  _544
REMARK  254  A    between atoms: _544  and  _545
REMARK  255  A    between atoms: _544  and  _547
REMARK  256  A    between atoms: _547  and  _548
REMARK  257  A    between atoms: _552  and  _553
REMARK  258  A    between atoms: _558  and  _559
REMARK  259  A    between atoms: _559  and  _560
REMARK  260  A    between atoms: _559  and  _562
REMARK  261  A    between atoms: _562  and  _563
REMARK  262  A    between atoms: _566  and  _567
REMARK  263  A    between atoms: _567  and  _568
REMARK  264  A    between atoms: _567  and  _570
REMARK  265  A    between atoms: _570  and  _571
REMARK  266  A    between atoms: _571  and  _572
REMARK  267  A    between atoms: _572  and  _573
REMARK  268  A    between atoms: _575  and  _576
REMARK  269  A    between atoms: _576  and  _577
REMARK  270  A    between atoms: _576  and  _579
REMARK  271  A    between atoms: _579  and  _580
REMARK  272  A    between atoms: _580  and  _581
REMARK  273  A    between atoms: _584  and  _585
REMARK  274  A    between atoms: _585  and  _586
REMARK  275  A    between atoms: _585  and  _588
REMARK  276  A    between atoms: _588  and  _589
REMARK  277  A    between atoms: _592  and  _593
REMARK  278  A    between atoms: _593  and  _594
REMARK  279  A    between atoms: _593  and  _596
REMARK  280  A    between atoms: _596  and  _597
REMARK  281  A    between atoms: _597  and  _598
REMARK  282  A    between atoms: _598  and  _599
REMARK  283  A    between atoms: _603  and  _604
REMARK  284  A    between atoms: _604  and  _605
REMARK  285  A    between atoms: _604  and  _607
REMARK  286  A    between atoms: _610  and  _611
REMARK  287  A    between atoms: _611  and  _612
REMARK  288  A    between atoms: _611  and  _614
REMARK  289  A    between atoms: _614  and  _615
REMARK  290  A    between atoms: _618  and  _619
REMARK  291  A    between atoms: _619  and  _620
REMARK  292  A    between atoms: _619  and  _622
REMARK  293  A    between atoms: _625  and  _626
REMARK  294  A    between atoms: _626  and  _627
REMARK  295  A    between atoms: _626  and  _629
REMARK  296  A    between atoms: _629  and  _630
REMARK  297  A    between atoms: _633  and  _634
REMARK  298  A    between atoms: _634  and  _635
REMARK  299  A    between atoms: _634  and  _637
REMARK  300  A    between atoms: _640  and  _641
REMARK  301  A    between atoms: _641  and  _642
REMARK  302  A    between atoms: _641  and  _644
REMARK  303  A    between atoms: _644  and  _645
REMARK  304  A    between atoms: _648  and  _649
REMARK  305  A    between atoms: _649  and  _650
REMARK  306  A    between atoms: _649  and  _652
REMARK  307  A    between atoms: _655  and  _656
REMARK  308  A    between atoms: _656  and  _657
REMARK  309  A    between atoms: _659  and  _660
REMARK  310  A    between atoms: _660  and  _661
REMARK  311  A    between atoms: _660  and  _663
REMARK  312  A    between atoms: _663  and  _664
REMARK  313  A    between atoms: _667  and  _668
REMARK  314  A    between atoms: _668  and  _669
REMARK  315  A    between atoms: _671  and  _672
REMARK  316  A    between atoms: _672  and  _673
REMARK  317  A    between atoms: _672  and  _675
REMARK  318  A    between atoms: _675  and  _676
REMARK  319  A    between atoms: _676  and  _677
REMARK  320  A    between atoms: _679  and  _680
REMARK  321  A    between atoms: _680  and  _681
REMARK  322  A    between atoms: _680  and  _683
REMARK  323  A    between atoms: _686  and  _687
REMARK  324  A    between atoms: _687  and  _688
REMARK  325  A    between atoms: _687  and  _690
REMARK  326  A    between atoms: _690  and  _691
REMARK  327  A    between atoms: _691  and  _692
REMARK  328  A    between atoms: _692  and  _693
REMARK  329  A    between atoms: _695  and  _696
REMARK  330  A    between atoms: _696  and  _697
REMARK  331  A    between atoms: _700  and  _701
REMARK  332  A    between atoms: _701  and  _702
REMARK  333  A    between atoms: _701  and  _704
REMARK  334  A    between atoms: _704  and  _705
REMARK  335  A    between atoms: _708  and  _709
REMARK  336  A    between atoms: _709  and  _710
REMARK  337  A    between atoms: _709  and  _712
REMARK  338  A    between atoms: _712  and  _713
REMARK  339  A    between atoms: _716  and  _717
REMARK  340  A    between atoms: _717  and  _720
REMARK  341  A    between atoms: _720  and  _721
REMARK  342  A    between atoms: _733  and  _734
REMARK  343  A    between atoms: _733  and  _735
REMARK  344  A    between atoms: _741  and  _744
REMARK  345  A    between atoms: _744  and  _745
REMARK  346  A    between atoms: _758  and  _759
REMARK  347  A    between atoms: _758  and  _761
REMARK  348  A    between atoms: _759  and  _760
REMARK  349  A    between atoms: _765  and  _766
REMARK  350  A    between atoms: _768  and  _769
REMARK  351  A    between atoms: _769  and  _770
REMARK  352  A    between atoms: _769  and  _772
REMARK  353  A    between atoms: _775  and  _776
REMARK  354  A    between atoms: _776  and  _777
REMARK  355  A    between atoms: _776  and  _779
REMARK  356  A    between atoms: _779  and  _780
REMARK  357  A    between atoms: _783  and  _784
REMARK  358  A    between atoms: _784  and  _785
REMARK  359  A    between atoms: _788  and  _789
REMARK  360  A    between atoms: _789  and  _790
REMARK  361  A    between atoms: _789  and  _792
REMARK  362  A    between atoms: _792  and  _793
REMARK  363  A    between atoms: _793  and  _794
REMARK  364  A    between atoms: _794  and  _795
REMARK  365  A    between atoms: _797  and  _798
REMARK  366  A    between atoms: _798  and  _799
REMARK  367  A    between atoms: _798  and  _801
REMARK  368  A    between atoms: _803  and  _804
REMARK  369  A    between atoms: _804  and  _805
REMARK  370  A    between atoms: _807  and  _808
REMARK  371  A    between atoms: _808  and  _809
REMARK  372  A    between atoms: _808  and  _811
REMARK  373  A    between atoms: _814  and  _815
REMARK  374  A    between atoms: _815  and  _816
REMARK  375  A    between atoms: _815  and  _818
REMARK  376  A    between atoms: _818  and  _819
REMARK  377  A    between atoms: _819  and  _820
REMARK  378  A    between atoms: _820  and  _821
REMARK  379  A    between atoms: _823  and  _824
REMARK  380  A    between atoms: _824  and  _825
REMARK  381  A    between atoms: _828  and  _829
REMARK  382  A    between atoms: _829  and  _830
REMARK  383  A    between atoms: _829  and  _832
REMARK  384  A    between atoms: _832  and  _833
REMARK  385  A    between atoms: _839  and  _840
REMARK  386  A    between atoms: _840  and  _841
REMARK  387  A    between atoms: _840  and  _843
REMARK  388  A    between atoms: _843  and  _844
REMARK  389  A    between atoms: _844  and  _845
REMARK  390  A    between atoms: _847  and  _848
REMARK  391  A    between atoms: _848  and  _849
REMARK  392  A    between atoms: _848  and  _851
REMARK  393  A    between atoms: _851  and  _852
REMARK  394  A    between atoms: _852  and  _853
REMARK  395  A    between atoms: _856  and  _857
REMARK  396  A    between atoms: _857  and  _858
REMARK  397  A    between atoms: _861  and  _862
REMARK  398  A    between atoms: _862  and  _863
REMARK  399  A    between atoms: _862  and  _865
REMARK  400  A    between atoms: _865  and  _866
REMARK  401  A    between atoms: _869  and  _870
REMARK  402  A    between atoms: _870  and  _871
REMARK  403  A    between atoms: _870  and  _873
REMARK  404  A    between atoms: _873  and  _874
REMARK  405  A    between atoms: _874  and  _875
REMARK  406  A    between atoms: _878  and  _879
REMARK  407  A    between atoms: _879  and  _880
REMARK  408  A    between atoms: _883  and  _884
REMARK  409  A    between atoms: _884  and  _885
REMARK  410  A    between atoms: _887  and  _888
REMARK  411  A    between atoms: _888  and  _889
REMARK  412  A    between atoms: _892  and  _893
REMARK  413  A    between atoms: _893  and  _894
REMARK  414  A    between atoms: _893  and  _896
REMARK  415  A    between atoms: _896  and  _897
REMARK  416  A    between atoms: _900  and  _901
REMARK  417  A    between atoms: _901  and  _902
REMARK  418  A    between atoms: _901  and  _904
REMARK  419  A    between atoms: _904  and  _905
REMARK  420  A    between atoms: _908  and  _909
REMARK  421  A    between atoms: _909  and  _910
REMARK  422  A    between atoms: _909  and  _912
REMARK  423  A    between atoms: _914  and  _915
REMARK  424  A    between atoms: _915  and  _916
REMARK  425  A    between atoms: _915  and  _918
REMARK  426  A    between atoms: _918  and  _919
REMARK  427  A    between atoms: _919  and  _920
REMARK  428  A    between atoms: _922  and  _923
REMARK  429  A    between atoms: _923  and  _924
REMARK  430  A    between atoms: _923  and  _926
REMARK  431  A    between atoms: _926  and  _927
REMARK  432  A    between atoms: _930  and  _931
REMARK  433  A    between atoms: _931  and  _932
REMARK  434  A    between atoms: _934  and  _935
REMARK  435  A    between atoms: _935  and  _936
REMARK  436  A    between atoms: _935  and  _938
REMARK  437  A    between atoms: _938  and  _939
REMARK  438  A    between atoms: _939  and  _940
REMARK  439  A    between atoms: _943  and  _944
REMARK  440  A    between atoms: _944  and  _945
REMARK  441  A    between atoms: _944  and  _947
REMARK  442  A    between atoms: _947  and  _948
REMARK  443  A    between atoms: _954  and  _955
REMARK  444  A    between atoms: _955  and  _956
REMARK  445  A    between atoms: _958  and  _959
REMARK  446  A    between atoms: _959  and  _960
REMARK  447  A    between atoms: _959  and  _962
REMARK  448  A    between atoms: _965  and  _966
REMARK  449  A    between atoms: _966  and  _967
REMARK  450  A    between atoms: _969  and  _970
REMARK  451  A    between atoms: _970  and  _971
REMARK  452  A    between atoms: _970  and  _973
REMARK  453  A    between atoms: _973  and  _974
REMARK  454  A    between atoms: _980  and  _981
REMARK  455  A    between atoms: _981  and  _982
REMARK  456  A    between atoms: _981  and  _984
REMARK  457  A    between atoms: _984  and  _985
REMARK  458  A    between atoms: _992  and  _993
REMARK  459  A    between atoms: _993  and  _994
REMARK  460  A    between atoms: _993  and  _996
REMARK  461  A    between atoms: _998  and  _999
REMARK  462  A    between atoms: _999  and  _1000
REMARK  463  A    between atoms: _1003  and  _1004
REMARK  464  A    between atoms: _1004  and  _1005
REMARK  465  A    between atoms: _1004  and  _1007
REMARK  466  A    between atoms: _1007  and  _1008
REMARK  467  A    between atoms: _1015  and  _1016
REMARK  468  A    between atoms: _1016  and  _1017
REMARK  469  A    between atoms: _1016  and  _1019
REMARK  470  A    between atoms: _1019  and  _1020
REMARK  471  A    between atoms: _1023  and  _1024
REMARK  472  A    between atoms: _1024  and  _1025
REMARK  473  A    between atoms: _1024  and  _1027
REMARK  474  A    between atoms: _1030  and  _1031
REMARK  475  A    between atoms: _1031  and  _1032
REMARK  476  A    between atoms: _1035  and  _1036
REMARK  477  A    between atoms: _1036  and  _1037
REMARK  478  A    between atoms: _1036  and  _1039
REMARK  479  A    between atoms: _1039  and  _1040
REMARK  480  A    between atoms: _1040  and  _1041
REMARK  481  A    between atoms: _1044  and  _1045
REMARK  482  A    between atoms: _1045  and  _1046
REMARK  483  A    between atoms: _1045  and  _1048
REMARK  484  A    between atoms: _1048  and  _1049
REMARK  485  A    between atoms: _1049  and  _1050
REMARK  486  A    between atoms: _1050  and  _1051
REMARK  487  A    between atoms: _1053  and  _1054
REMARK  488  A    between atoms: _1054  and  _1055
REMARK  489  A    between atoms: _1054  and  _1057
REMARK  490  A    between atoms: _1060  and  _1061
REMARK  491  A    between atoms: _1061  and  _1062
REMARK  492  A    between atoms: _1061  and  _1064
REMARK  493  A    between atoms: _1067  and  _1068
REMARK  494  A    between atoms: _1068  and  _1069
REMARK  495  A    between atoms: _1068  and  _1071
REMARK  496  A    between atoms: _1074  and  _1075
REMARK  497  A    between atoms: _1075  and  _1076
REMARK  498  A    between atoms: _1075  and  _1078
REMARK  499  A    between atoms: _1078  and  _1079
REMARK  500  A    between atoms: _1082  and  _1083
REMARK  501  A    between atoms: _1083  and  _1084
REMARK  502  A    between atoms: _1083  and  _1086
REMARK  503  A    between atoms: _1089  and  _1090
REMARK  504  A    between atoms: _1090  and  _1091
REMARK  505  A    between atoms: _1090  and  _1093
REMARK  506  A    between atoms: _1093  and  _1094
REMARK  507  A    between atoms: _1094  and  _1095
REMARK  508  A    between atoms: _1095  and  _1096
REMARK  509  A    between atoms: _1098  and  _1099
REMARK  510  A    between atoms: _1099  and  _1100
REMARK  511  A    between atoms: _1099  and  _1102
REMARK  512  A    between atoms: _1102  and  _1103
REMARK  513  A    between atoms: _1108  and  _1109
REMARK  514  A    between atoms: _1109  and  _1110
REMARK  515  A    between atoms: _1109  and  _1112
REMARK  516  A    between atoms: _1112  and  _1113
REMARK  517  A    between atoms: _1116  and  _1117
REMARK  518  A    between atoms: _1117  and  _1118
REMARK  519  A    between atoms: _1117  and  _1120
REMARK  520  A    between atoms: _1120  and  _1121
REMARK  521  A    between atoms: _1124  and  _1125
REMARK  522  A    between atoms: _1125  and  _1126
REMARK  523  A    between atoms: _1125  and  _1128
REMARK  524  A    between atoms: _1128  and  _1129
REMARK  525  A    between atoms: _1132  and  _1133
REMARK  526  A    between atoms: _1133  and  _1134
REMARK  527  A    between atoms: _1133  and  _1136
REMARK  528  A    between atoms: _1136  and  _1137
REMARK  529  A    between atoms: _1137  and  _1138
REMARK  530  A    between atoms: _1141  and  _1142
REMARK  531  A    between atoms: _1142  and  _1143
REMARK  532  A    between atoms: _1142  and  _1145
REMARK  533  A    between atoms: _1145  and  _1146
REMARK  534  A    between atoms: _1146  and  _1147
REMARK  535  A    between atoms: _1150  and  _1151
REMARK  536  A    between atoms: _1151  and  _1152
REMARK  537  A    between atoms: _1151  and  _1154
REMARK  538  A    between atoms: _1154  and  _1155
REMARK  539  A    between atoms: _1162  and  _1163
REMARK  540  A    between atoms: _1163  and  _1164
REMARK  541  A    between atoms: _1167  and  _1168
REMARK  542  A    between atoms: _1168  and  _1169
REMARK  543  A    between atoms: _1168  and  _1171
REMARK  544  A    between atoms: _1171  and  _1172
REMARK  545  A    between atoms: _1181  and  _1182
REMARK  546  A    between atoms: _1182  and  _1183
REMARK  547  A    between atoms: _1182  and  _1185
REMARK  548  A    between atoms: _1185  and  _1186
REMARK  549  A    between atoms: _1186  and  _1187
REMARK  550  A    between atoms: _1190  and  _1191
REMARK  551  A    between atoms: _1191  and  _1192
REMARK  552  A    between atoms: _1191  and  _1194
REMARK  553  A    between atoms: _1196  and  _1197
REMARK  554  A    between atoms: _1197  and  _1198
REMARK  555  A    between atoms: _1197  and  _1200
REMARK  556  A    between atoms: _1202  and  _1203
REMARK  557  A    between atoms: _1203  and  _1204
REMARK  558  A    between atoms: _1207  and  _1208
REMARK  559  A    between atoms: _1208  and  _1209
REMARK  560  A    between atoms: _1211  and  _1212
REMARK  561  A    between atoms: _1212  and  _1213
REMARK  562  A    between atoms: _1215  and  _1216
REMARK  563  A    between atoms: _1216  and  _1217
REMARK  564  A    between atoms: _1216  and  _1219
REMARK  565  A    between atoms: _1221  and  _1222
REMARK  566  A    between atoms: _1222  and  _1223
REMARK  567  A    between atoms: _1222  and  _1225
REMARK  568  A    between atoms: _1225  and  _1226
REMARK  569  A    between atoms: _1232  and  _1233
REMARK  570  A    between atoms: _1233  and  _1234
REMARK  571  A    between atoms: _1233  and  _1236
REMARK  572  A    between atoms: _1239  and  _1240
REMARK  573  A    between atoms: _1240  and  _1241
REMARK  574  A    between atoms: _1240  and  _1243
REMARK  575  A    between atoms: _1247  and  _1249
REMARK  576  A    between atoms: _1247  and  _1252
REMARK  577  A    between atoms: _1251  and  _1252
REMARK  578  A    between atoms: _1251  and  _1254
REMARK  579  A    between atoms: _1253  and  _1254
REMARK  580  A    between atoms: _1253  and  _1256
REMARK  581  A    between atoms: _1254  and  _1255
REMARK  582  A    between atoms: _1255  and  _1257
REMARK  583  A    between atoms: _1256  and  _1258
REMARK  584  A    between atoms: _1265  and  _1266
REMARK  585  A    between atoms: _1266  and  _1267
REMARK  586  A    between atoms: _1266  and  _1269
REMARK  587  A    between atoms: _1272  and  _1273
REMARK  588  A    between atoms: _1273  and  _1274
REMARK  589  A    between atoms: _1273  and  _1276
REMARK  590  A    between atoms: _1276  and  _1277
REMARK  591  A    between atoms: _1280  and  _1281
REMARK  592  A    between atoms: _1281  and  _1282
REMARK  593  A    between atoms: _1281  and  _1284
REMARK  594  A    between atoms: _1287  and  _1288
REMARK  595  A    between atoms: _1288  and  _1289
REMARK  596  A    between atoms: _1291  and  _1292
REMARK  597  A    between atoms: _1292  and  _1293
REMARK  598  A    between atoms: _1292  and  _1295
REMARK  599  A    between atoms: _1295  and  _1296
REMARK  600  A    between atoms: _1296  and  _1297
REMARK  601  A    between atoms: _1301  and  _1302
REMARK  602  A    between atoms: _1307  and  _1308
REMARK  603  A    between atoms: _1308  and  _1309
REMARK  604  A    between atoms: _1308  and  _1311
REMARK  605  A    between atoms: _1311  and  _1312
REMARK  606  A    between atoms: _1312  and  _1313
REMARK  607  A    between atoms: _1315  and  _1316
REMARK  608  A    between atoms: _1316  and  _1317
REMARK  609  A    between atoms: _1319  and  _1320
REMARK  610  A    between atoms: _1320  and  _1321
REMARK  611  A    between atoms: _1320  and  _1323
REMARK  612  A    between atoms: _1323  and  _1324
REMARK  613  A    between atoms: _1324  and  _1325
REMARK  614  A    between atoms: _1325  and  _1326
REMARK  615  A    between atoms: _1330  and  _1331
REMARK  616  A    between atoms: _1331  and  _1332
REMARK  617  A    between atoms: _1334  and  _1335
REMARK  618  A    between atoms: _1335  and  _1336
REMARK  619  A    between atoms: _1335  and  _1338
REMARK  620  A    between atoms: _1341  and  _1342
REMARK  621  A    between atoms: _1342  and  _1343
REMARK  622  A    between atoms: _1342  and  _1345
REMARK  623  A    between atoms: _1345  and  _1346
REMARK  624  A    between atoms: _1346  and  _1347
REMARK  625  A    between atoms: _1347  and  _1348
REMARK  626  A    between atoms: _1350  and  _1351
REMARK  627  A    between atoms: _1351  and  _1352
REMARK  628  A    between atoms: _1351  and  _1354
REMARK  629  A    between atoms: _1357  and  _1358
REMARK  630  A    between atoms: _1358  and  _1359
REMARK  631  A    between atoms: _1358  and  _1361
REMARK  632  A    between atoms: _1361  and  _1362
REMARK  633  A    between atoms: _1365  and  _1366
REMARK  634  A    between atoms: _1366  and  _1367
REMARK  635  A    between atoms: _1366  and  _1369
REMARK  636  A    between atoms: _1369  and  _1370
REMARK  637  A    between atoms: _1373  and  _1374
REMARK  638  A    between atoms: _1374  and  _1375
REMARK  639  A    between atoms: _1374  and  _1377
REMARK  640  A    between atoms: _1377  and  _1378
REMARK  641  A    between atoms: _1383  and  _1384
REMARK  642  A    between atoms: _1384  and  _1385
REMARK  643  A    between atoms: _1384  and  _1387
REMARK  644  A    between atoms: _1387  and  _1388
REMARK  645  A    between atoms: _1391  and  _1392
REMARK  646  A    between atoms: _1392  and  _1393
REMARK  647  A    between atoms: _1392  and  _1395
REMARK  648  A    between atoms: _1395  and  _1396
REMARK  649  A    between atoms: _1396  and  _1397
REMARK  650  A    between atoms: _1397  and  _1398
REMARK  651  A    between atoms: _1400  and  _1401
REMARK  652  A    between atoms: _1401  and  _1402
REMARK  653  A    between atoms: _1401  and  _1404
REMARK  654  A    between atoms: _1404  and  _1405
REMARK  655  A    between atoms: _1405  and  _1406
REMARK  656  A    between atoms: _1409  and  _1410
REMARK  657  A    between atoms: _1410  and  _1411
REMARK  658  A    between atoms: _1410  and  _1413
REMARK  659  A    between atoms: _1413  and  _1414
REMARK  660  A    between atoms: _1417  and  _1418
REMARK  661  A    between atoms: _1418  and  _1419
REMARK  662  A    between atoms: _1418  and  _1421
REMARK  663  A    between atoms: _1421  and  _1422
REMARK  664  A    between atoms: _1422  and  _1423
REMARK  665  A    between atoms: _1426  and  _1427
REMARK  666  A    between atoms: _1427  and  _1428
REMARK  667  A    between atoms: _1427  and  _1430
REMARK  668  A    between atoms: _1433  and  _1434
REMARK  669  A    between atoms: _1434  and  _1435
REMARK  670  A    between atoms: _1434  and  _1437
REMARK  671  A    between atoms: _1437  and  _1438
REMARK  672  A    between atoms: _1438  and  _1439
REMARK  673  A    between atoms: _1442  and  _1443
REMARK  674  A    between atoms: _1443  and  _1444
REMARK  675  A    between atoms: _1443  and  _1446
REMARK  676  A    between atoms: _1446  and  _1447
REMARK  677  A    between atoms: _1454  and  _1455
REMARK  678  A    between atoms: _1455  and  _1456
REMARK  679  A    between atoms: _1455  and  _1458
REMARK  680  A    between atoms: _1458  and  _1459
REMARK  681  A    between atoms: _1462  and  _1463
REMARK  682  A    between atoms: _1463  and  _1464
REMARK  683  A    between atoms: _1463  and  _1466
REMARK  684  A    between atoms: _1466  and  _1467
REMARK  685  A    between atoms: _1467  and  _1468
REMARK  686  A    between atoms: _1471  and  _1472
REMARK  687  A    between atoms: _1472  and  _1473
REMARK  688  A    between atoms: _1472  and  _1475
REMARK  689  A    between atoms: _1475  and  _1476
REMARK  690  A    between atoms: _1476  and  _1477
REMARK  691  A    between atoms: _1480  and  _1481
REMARK  692  A    between atoms: _1481  and  _1482
REMARK  693  A    between atoms: _1481  and  _1484
REMARK  694  A    between atoms: _1484  and  _1485
REMARK  695  A    between atoms: _1485  and  _1486
REMARK  696  A    between atoms: _1486  and  _1487
REMARK  697  A    between atoms: _1491  and  _1492
REMARK  698  A    between atoms: _1492  and  _1493
REMARK  699  A    between atoms: _1492  and  _1495
REMARK  700  A    between atoms: _1495  and  _1496
REMARK  701  A    between atoms: _1496  and  _1497
REMARK  702  A    between atoms: _1497  and  _1498
REMARK  703  A    between atoms: _1502  and  _1503
REMARK  704  A    between atoms: _1503  and  _1504
REMARK  705  A    between atoms: _1503  and  _1506
REMARK  706  A    between atoms: _1506  and  _1507
REMARK  707  A    between atoms: _1510  and  _1511
REMARK  708  A    between atoms: _1511  and  _1512
REMARK  709  A    between atoms: _1511  and  _1514
REMARK  710  A    between atoms: _1514  and  _1515
REMARK  711  A    between atoms: _1515  and  _1516
REMARK  712  A    between atoms: _1516  and  _1517
REMARK  713  A    between atoms: _1519  and  _1520
REMARK  714  A    between atoms: _1520  and  _1521
REMARK  715  A    between atoms: _1520  and  _1523
REMARK  716  A    between atoms: _1523  and  _1524
REMARK  717  A    between atoms: _1524  and  _1525
REMARK  718  A    between atoms: _1528  and  _1529
REMARK  719  A    between atoms: _1529  and  _1530
REMARK  720  A    between atoms: _1529  and  _1532
REMARK  721  A    between atoms: _1532  and  _1533
REMARK  722  A    between atoms: _1536  and  _1537
REMARK  723  A    between atoms: _1537  and  _1538
REMARK  724  A    between atoms: _1537  and  _1540
REMARK  725  A    between atoms: _1543  and  _1544
REMARK  726  A    between atoms: _1544  and  _1545
REMARK  727  A    between atoms: _1544  and  _1547
REMARK  728  A    between atoms: _1547  and  _1548
REMARK  729  A    between atoms: _1548  and  _1549
REMARK  730  A    between atoms: _1549  and  _1550
REMARK  731  A    between atoms: _1552  and  _1553
REMARK  732  A    between atoms: _1553  and  _1554
REMARK  733  A    between atoms: _1553  and  _1556
REMARK  734  A    between atoms: _1556  and  _1557
REMARK  735  A    between atoms: _1557  and  _1558
REMARK  736  A    between atoms: _1558  and  _1559
REMARK  737  A    between atoms: _1561  and  _1562
REMARK  738  A    between atoms: _1562  and  _1563
REMARK  739  A    between atoms: _1562  and  _1565
REMARK  740  A    between atoms: _1565  and  _1566
REMARK  741  A    between atoms: _1571  and  _1572
REMARK  742  A    between atoms: _1572  and  _1573
REMARK  743  A    between atoms: _1572  and  _1575
REMARK  744  A    between atoms: _1577  and  _1578
REMARK  745  A    between atoms: _1578  and  _1579
REMARK  746  A    between atoms: _1578  and  _1581
REMARK  747  A    between atoms: _1581  and  _1582
REMARK  748  A    between atoms: _1582  and  _1583
REMARK  749  A    between atoms: _1586  and  _1587
REMARK  750  A    between atoms: _1587  and  _1588
REMARK  751  A    between atoms: _1587  and  _1590
REMARK  752  A    between atoms: _1590  and  _1591
REMARK  753  A    between atoms: _1597  and  _1598
REMARK  754  A    between atoms: _1598  and  _1599
REMARK  755  A    between atoms: _1598  and  _1601
REMARK  756  A    between atoms: _1601  and  _1602
REMARK  757  A    between atoms: _1605  and  _1606
REMARK  758  A    between atoms: _1606  and  _1607
REMARK  759  A    between atoms: _1609  and  _1610
REMARK  760  A    between atoms: _1610  and  _1611
REMARK  761  A    between atoms: _1610  and  _1613
REMARK  762  A    between atoms: _1613  and  _1614
REMARK  763  A    between atoms: _1622  and  _1623
REMARK  764  A    between atoms: _1628  and  _1629
REMARK  765  A    between atoms: _1629  and  _1630
REMARK  766  A    between atoms: _1629  and  _1632
REMARK  767  A    between atoms: _1632  and  _1633
REMARK  768  A    between atoms: _1636  and  _1637
REMARK  769  A    between atoms: _1637  and  _1638
REMARK  770  A    between atoms: _1637  and  _1640
REMARK  771  A    between atoms: _1643  and  _1644
REMARK  772  A    between atoms: _1644  and  _1645
REMARK  773  A    between atoms: _1644  and  _1647
REMARK  774  A    between atoms: _1647  and  _1648
REMARK  775  A    between atoms: _1651  and  _1652
REMARK  776  A    between atoms: _1652  and  _1653
REMARK  777  A    between atoms: _1652  and  _1655
REMARK  778  A    between atoms: _1655  and  _1656
REMARK  779  A    between atoms: _1662  and  _1663
REMARK  780  A    between atoms: _1663  and  _1664
REMARK  781  A    between atoms: _1663  and  _1666
REMARK  782  A    between atoms: _1669  and  _1670
REMARK  783  A    between atoms: _1670  and  _1671
REMARK  784  A    between atoms: _1670  and  _1673
REMARK  785  A    between atoms: _1673  and  _1674
REMARK  786  A    between atoms: _1674  and  _1675
REMARK                            x       y       z     vdW  Elec       q    Type
REMARK                         _______ _______ _______ _____ _____    ______ ____
ROOT
ATOM      1  C   UNL     1      11.084  17.717   3.211  0.00  0.00    +0.341 C 
ATOM      2  N   UNL     1       9.796  17.875   3.511  0.00  0.00    -0.080 NA
ATOM      3  O   UNL     1      11.594  16.627   2.889  0.00  0.00    -0.262 OA
ENDROOT
TORSDOF 0
REMARK  Name = /Users/mlugowska/PhD/ML_residence_time_prediction/protein_files/5J64_protein.pdb
REMARK  786 active torsions:
REMARK  status: ('A' for Active; 'I' for Inactive)
REMARK    1  A    between atoms: _2  and  _3
REMARK    2  A    between atoms: _2  and  _5
REMARK    3  A    between atoms: _5  and  _6
REMARK    4  A    between atoms: _6  and  _7
REMARK    5  A    between atoms: _10  and  _11
REMARK    6  A    between atoms: _11  and  _12
REMARK    7  A    between atoms: _11  and  _14
REMARK    8  A    between atoms: _17  and  _18
REMARK    9  A    between atoms: _18  and  _19
REMARK   10  A    between atoms: _18  and  _21
REMARK   11  A    between atoms: _21  and  _22
REMARK   12  A    between atoms: _22  and  _23
REMARK   13  A    between atoms: _26  and  _27
REMARK   14  A    between atoms: _27  and  _28
REMARK   15  A    between atoms: _27  and  _30
REMARK   16  A    between atoms: _33  and  _34
REMARK   17  A    between atoms: _34  and  _35
REMARK   18  A    between atoms: _34  and  _37
REMARK   19  A    between atoms: _37  and  _38
REMARK   20  A    between atoms: _44  and  _45
REMARK   21  A    between atoms: _45  and  _46
REMARK   22  A    between atoms: _49  and  _50
REMARK   23  A    between atoms: _50  and  _51
REMARK   24  A    between atoms: _50  and  _53
REMARK   25  A    between atoms: _53  and  _54
REMARK   26  A    between atoms: _60  and  _61
REMARK   27  A    between atoms: _61  and  _62
REMARK   28  A    between atoms: _61  and  _64
REMARK   29  A    between atoms: _64  and  _65
REMARK   30  A    between atoms: _65  and  _66
REMARK   31  A    between atoms: _69  and  _70
REMARK   32  A    between atoms: _70  and  _71
REMARK   33  A    between atoms: _74  and  _75
REMARK   34  A    between atoms: _75  and  _76
REMARK   35  A    between atoms: _75  and  _78
REMARK   36  A    between atoms: _78  and  _79
REMARK   37  A    between atoms: _79  and  _80
REMARK   38  A    between atoms: _83  and  _84
REMARK   39  A    between atoms: _84  and  _85
REMARK   40  A    between atoms: _84  and  _87
REMARK   41  A    between atoms: _87  and  _88
REMARK   42  A    between atoms: _91  and  _92
REMARK   43  A    between atoms: _92  and  _93
REMARK   44  A    between atoms: _96  and  _97
REMARK   45  A    between atoms: _97  and  _98
REMARK   46  A    between atoms: _97  and  _100
REMARK   47  A    between atoms: _100  and  _101
REMARK   48  A    between atoms: _101  and  _102
REMARK   49  A    between atoms: _105  and  _106
REMARK   50  A    between atoms: _106  and  _107
REMARK   51  A    between atoms: _106  and  _109
REMARK   52  A    between atoms: _109  and  _110
REMARK   53  A    between atoms: _113  and  _114
REMARK   54  A    between atoms: _114  and  _115
REMARK   55  A    between atoms: _114  and  _117
REMARK   56  A    between atoms: _117  and  _118
REMARK   57  A    between atoms: _118  and  _119
REMARK   58  A    between atoms: _121  and  _122
REMARK   59  A    between atoms: _122  and  _123
REMARK   60  A    between atoms: _122  and  _125
REMARK   61  A    between atoms: _127  and  _128
REMARK   62  A    between atoms: _128  and  _129
REMARK   63  A    between atoms: _128  and  _131
REMARK   64  A    between atoms: _131  and  _132
REMARK   65  A    between atoms: _135  and  _136
REMARK   66  A    between atoms: _136  and  _137
REMARK   67  A    between atoms: _136  and  _139
REMARK   68  A    between atoms: _139  and  _140
REMARK   69  A    between atoms: _143  and  _144
REMARK   70  A    between atoms: _144  and  _145
REMARK   71  A    between atoms: _144  and  _147
REMARK   72  A    between atoms: _147  and  _148
REMARK   73  A    between atoms: _151  and  _152
REMARK   74  A    between atoms: _152  and  _153
REMARK   75  A    between atoms: _152  and  _155
REMARK   76  A    between atoms: _155  and  _156
REMARK   77  A    between atoms: _159  and  _160
REMARK   78  A    between atoms: _160  and  _161
REMARK   79  A    between atoms: _160  and  _163
REMARK   80  A    between atoms: _166  and  _167
REMARK   81  A    between atoms: _167  and  _170
REMARK   82  A    between atoms: _170  and  _171
REMARK   83  A    between atoms: _181  and  _183
REMARK   84  A    between atoms: _183  and  _184
REMARK   85  A    between atoms: _189  and  _194
REMARK   86  A    between atoms: _192  and  _195
REMARK   87  A    between atoms: _193  and  _194
REMARK   88  A    between atoms: _195  and  _196
REMARK   89  A    between atoms: _201  and  _202
REMARK   90  A    between atoms: _202  and  _203
REMARK   91  A    between atoms: _202  and  _205
REMARK   92  A    between atoms: _207  and  _208
REMARK   93  A    between atoms: _208  and  _209
REMARK   94  A    between atoms: _208  and  _211
REMARK   95  A    between atoms: _211  and  _212
REMARK   96  A    between atoms: _215  and  _216
REMARK   97  A    between atoms: _216  and  _217
REMARK   98  A    between atoms: _216  and  _219
REMARK   99  A    between atoms: _219  and  _220
REMARK  100  A    between atoms: _220  and  _221
REMARK  101  A    between atoms: _221  and  _222
REMARK  102  A    between atoms: _224  and  _225
REMARK  103  A    between atoms: _225  and  _226
REMARK  104  A    between atoms: _225  and  _228
REMARK  105  A    between atoms: _228  and  _229
REMARK  106  A    between atoms: _229  and  _230
REMARK  107  A    between atoms: _233  and  _234
REMARK  108  A    between atoms: _234  and  _235
REMARK  109  A    between atoms: _234  and  _237
REMARK  110  A    between atoms: _237  and  _238
REMARK  111  A    between atoms: _241  and  _242
REMARK  112  A    between atoms: _242  and  _243
REMARK  113  A    between atoms: _242  and  _245
REMARK  114  A    between atoms: _245  and  _246
REMARK  115  A    between atoms: _252  and  _253
REMARK  116  A    between atoms: _253  and  _254
REMARK  117  A    between atoms: _253  and  _256
REMARK  118  A    between atoms: _256  and  _257
REMARK  119  A    between atoms: _260  and  _261
REMARK  120  A    between atoms: _261  and  _262
REMARK  121  A    between atoms: _261  and  _264
REMARK  122  A    between atoms: _264  and  _265
REMARK  123  A    between atoms: _265  and  _266
REMARK  124  A    between atoms: _266  and  _267
REMARK  125  A    between atoms: _271  and  _272
REMARK  126  A    between atoms: _272  and  _273
REMARK  127  A    between atoms: _272  and  _275
REMARK  128  A    between atoms: _275  and  _276
REMARK  129  A    between atoms: _276  and  _277
REMARK  130  A    between atoms: _280  and  _281
REMARK  131  A    between atoms: _281  and  _282
REMARK  132  A    between atoms: _281  and  _284
REMARK  133  A    between atoms: _284  and  _285
REMARK  134  A    between atoms: _288  and  _289
REMARK  135  A    between atoms: _289  and  _292
REMARK  136  A    between atoms: _292  and  _293
REMARK  137  A    between atoms: _309  and  _310
REMARK  138  A    between atoms: _309  and  _312
REMARK  139  A    between atoms: _312  and  _313
REMARK  140  A    between atoms: _316  and  _317
REMARK  141  A    between atoms: _317  and  _318
REMARK  142  A    between atoms: _317  and  _320
REMARK  143  A    between atoms: _322  and  _323
REMARK  144  A    between atoms: _323  and  _324
REMARK  145  A    between atoms: _323  and  _326
REMARK  146  A    between atoms: _328  and  _329
REMARK  147  A    between atoms: _329  and  _330
REMARK  148  A    between atoms: _329  and  _332
REMARK  149  A    between atoms: _332  and  _333
REMARK  150  A    between atoms: _336  and  _337
REMARK  151  A    between atoms: _337  and  _338
REMARK  152  A    between atoms: _341  and  _342
REMARK  153  A    between atoms: _342  and  _343
REMARK  154  A    between atoms: _342  and  _345
REMARK  155  A    between atoms: _345  and  _346
REMARK  156  A    between atoms: _349  and  _350
REMARK  157  A    between atoms: _350  and  _351
REMARK  158  A    between atoms: _350  and  _353
REMARK  159  A    between atoms: _353  and  _354
REMARK  160  A    between atoms: _357  and  _358
REMARK  161  A    between atoms: _358  and  _359
REMARK  162  A    between atoms: _358  and  _361
REMARK  163  A    between atoms: _361  and  _362
REMARK  164  A    between atoms: _362  and  _363
REMARK  165  A    between atoms: _363  and  _364
REMARK  166  A    between atoms: _366  and  _367
REMARK  167  A    between atoms: _367  and  _368
REMARK  168  A    between atoms: _367  and  _370
REMARK  169  A    between atoms: _370  and  _371
REMARK  170  A    between atoms: _374  and  _375
REMARK  171  A    between atoms: _375  and  _376
REMARK  172  A    between atoms: _375  and  _378
REMARK  173  A    between atoms: _378  and  _379
REMARK  174  A    between atoms: _379  and  _380
REMARK  175  A    between atoms: _380  and  _381
REMARK  176  A    between atoms: _385  and  _386
REMARK  177  A    between atoms: _386  and  _387
REMARK  178  A    between atoms: _386  and  _389
REMARK  179  A    between atoms: _389  and  _390
REMARK  180  A    between atoms: _397  and  _398
REMARK  181  A    between atoms: _398  and  _399
REMARK  182  A    between atoms: _398  and  _401
REMARK  183  A    between atoms: _401  and  _402
REMARK  184  A    between atoms: _402  and  _403
REMARK  185  A    between atoms: _406  and  _407
REMARK  186  A    between atoms: _407  and  _408
REMARK  187  A    between atoms: _407  and  _410
REMARK  188  A    between atoms: _412  and  _413
REMARK  189  A    between atoms: _413  and  _414
REMARK  190  A    between atoms: _413  and  _416
REMARK  191  A    between atoms: _416  and  _417
REMARK  192  A    between atoms: _420  and  _421
REMARK  193  A    between atoms: _421  and  _422
REMARK  194  A    between atoms: _421  and  _424
REMARK  195  A    between atoms: _427  and  _428
REMARK  196  A    between atoms: _428  and  _429
REMARK  197  A    between atoms: _428  and  _431
REMARK  198  A    between atoms: _431  and  _432
REMARK  199  A    between atoms: _436  and  _437
REMARK  200  A    between atoms: _442  and  _443
REMARK  201  A    between atoms: _443  and  _444
REMARK  202  A    between atoms: _443  and  _446
REMARK  203  A    between atoms: _448  and  _449
REMARK  204  A    between atoms: _449  and  _450
REMARK  205  A    between atoms: _449  and  _452
REMARK  206  A    between atoms: _452  and  _453
REMARK  207  A    between atoms: _453  and  _454
REMARK  208  A    between atoms: _454  and  _455
REMARK  209  A    between atoms: _457  and  _458
REMARK  210  A    between atoms: _458  and  _459
REMARK  211  A    between atoms: _458  and  _461
REMARK  212  A    between atoms: _461  and  _462
REMARK  213  A    between atoms: _465  and  _466
REMARK  214  A    between atoms: _466  and  _467
REMARK  215  A    between atoms: _466  and  _469
REMARK  216  A    between atoms: _469  and  _470
REMARK  217  A    between atoms: _473  and  _474
REMARK  218  A    between atoms: _474  and  _475
REMARK  219  A    between atoms: _474  and  _477
REMARK  220  A    between atoms: _479  and  _480
REMARK  221  A    between atoms: _480  and  _481
REMARK  222  A    between atoms: _483  and  _484
REMARK  223  A    between atoms: _484  and  _485
REMARK  224  A    between atoms: _484  and  _487
REMARK  225  A    between atoms: _487  and  _488
REMARK  226  A    between atoms: _488  and  _489
REMARK  227  A    between atoms: _489  and  _490
REMARK  228  A    between atoms: _492  and  _493
REMARK  229  A    between atoms: _493  and  _494
REMARK  230  A    between atoms: _493  and  _496
REMARK  231  A    between atoms: _496  and  _497
REMARK  232  A    between atoms: _497  and  _498
REMARK  233  A    between atoms: _501  and  _502
REMARK  234  A    between atoms: _502  and  _503
REMARK  235  A    between atoms: _502  and  _505
REMARK  236  A    between atoms: _505  and  _506
REMARK  237  A    between atoms: _509  and  _510
REMARK  238  A    between atoms: _510  and  _511
REMARK  239  A    between atoms: _510  and  _513
REMARK  240  A    between atoms: _513  and  _514
REMARK  241  A    between atoms: _519  and  _520
REMARK  242  A    between atoms: _520  and  _521
REMARK  243  A    between atoms: _520  and  _523
REMARK  244  A    between atoms: _523  and  _524
REMARK  245  A    between atoms: _527  and  _528
REMARK  246  A    between atoms: _528  and  _529
REMARK  247  A    between atoms: _528  and  _531
REMARK  248  A    between atoms: _531  and  _532
REMARK  249  A    between atoms: _535  and  _536
REMARK  250  A    between atoms: _536  and  _537
REMARK  251  A    between atoms: _536  and  _539
REMARK  252  A    between atoms: _539  and  _540
REMARK  253  A    between atoms: _543  and  _544
REMARK  254  A    between atoms: _544  and  _545
REMARK  255  A    between atoms: _544  and  _547
REMARK  256  A    between atoms: _547  and  _548
REMARK  257  A    between atoms: _552  and  _553
REMARK  258  A    between atoms: _558  and  _559
REMARK  259  A    between atoms: _559  and  _560
REMARK  260  A    between atoms: _559  and  _562
REMARK  261  A    between atoms: _562  and  _563
REMARK  262  A    between atoms: _566  and  _567
REMARK  263  A    between atoms: _567  and  _568
REMARK  264  A    between atoms: _567  and  _570
REMARK  265  A    between atoms: _570  and  _571
REMARK  266  A    between atoms: _571  and  _572
REMARK  267  A    between atoms: _572  and  _573
REMARK  268  A    between atoms: _575  and  _576
REMARK  269  A    between atoms: _576  and  _577
REMARK  270  A    between atoms: _576  and  _579
REMARK  271  A    between atoms: _579  and  _580
REMARK  272  A    between atoms: _580  and  _581
REMARK  273  A    between atoms: _584  and  _585
REMARK  274  A    between atoms: _585  and  _586
REMARK  275  A    between atoms: _585  and  _588
REMARK  276  A    between atoms: _588  and  _589
REMARK  277  A    between atoms: _592  and  _593
REMARK  278  A    between atoms: _593  and  _594
REMARK  279  A    between atoms: _593  and  _596
REMARK  280  A    between atoms: _596  and  _597
REMARK  281  A    between atoms: _597  and  _598
REMARK  282  A    between atoms: _598  and  _599
REMARK  283  A    between atoms: _603  and  _604
REMARK  284  A    between atoms: _604  and  _605
REMARK  285  A    between atoms: _604  and  _607
REMARK  286  A    between atoms: _610  and  _611
REMARK  287  A    between atoms: _611  and  _612
REMARK  288  A    between atoms: _611  and  _614
REMARK  289  A    between atoms: _614  and  _615
REMARK  290  A    between atoms: _618  and  _619
REMARK  291  A    between atoms: _619  and  _620
REMARK  292  A    between atoms: _619  and  _622
REMARK  293  A    between atoms: _625  and  _626
REMARK  294  A    between atoms: _626  and  _627
REMARK  295  A    between atoms: _626  and  _629
REMARK  296  A    between atoms: _629  and  _630
REMARK  297  A    between atoms: _633  and  _634
REMARK  298  A    between atoms: _634  and  _635
REMARK  299  A    between atoms: _634  and  _637
REMARK  300  A    between atoms: _640  and  _641
REMARK  301  A    between atoms: _641  and  _642
REMARK  302  A    between atoms: _641  and  _644
REMARK  303  A    between atoms: _644  and  _645
REMARK  304  A    between atoms: _648  and  _649
REMARK  305  A    between atoms: _649  and  _650
REMARK  306  A    between atoms: _649  and  _652
REMARK  307  A    between atoms: _655  and  _656
REMARK  308  A    between atoms: _656  and  _657
REMARK  309  A    between atoms: _659  and  _660
REMARK  310  A    between atoms: _660  and  _661
REMARK  311  A    between atoms: _660  and  _663
REMARK  312  A    between atoms: _663  and  _664
REMARK  313  A    between atoms: _667  and  _668
REMARK  314  A    between atoms: _668  and  _669
REMARK  315  A    between atoms: _671  and  _672
REMARK  316  A    between atoms: _672  and  _673
REMARK  317  A    between atoms: _672  and  _675
REMARK  318  A    between atoms: _675  and  _676
REMARK  319  A    between atoms: _676  and  _677
REMARK  320  A    between atoms: _679  and  _680
REMARK  321  A    between atoms: _680  and  _681
REMARK  322  A    between atoms: _680  and  _683
REMARK  323  A    between atoms: _686  and  _687
REMARK  324  A    between atoms: _687  and  _688
REMARK  325  A    between atoms: _687  and  _690
REMARK  326  A    between atoms: _690  and  _691
REMARK  327  A    between atoms: _691  and  _692
REMARK  328  A    between atoms: _692  and  _693
REMARK  329  A    between atoms: _695  and  _696
REMARK  330  A    between atoms: _696  and  _697
REMARK  331  A    between atoms: _700  and  _701
REMARK  332  A    between atoms: _701  and  _702
REMARK  333  A    between atoms: _701  and  _704
REMARK  334  A    between atoms: _704  and  _705
REMARK  335  A    between atoms: _708  and  _709
REMARK  336  A    between atoms: _709  and  _710
REMARK  337  A    between atoms: _709  and  _712
REMARK  338  A    between atoms: _712  and  _713
REMARK  339  A    between atoms: _716  and  _717
REMARK  340  A    between atoms: _717  and  _720
REMARK  341  A    between atoms: _720  and  _721
REMARK  342  A    between atoms: _733  and  _734
REMARK  343  A    between atoms: _733  and  _735
REMARK  344  A    between atoms: _741  and  _744
REMARK  345  A    between atoms: _744  and  _745
REMARK  346  A    between atoms: _758  and  _759
REMARK  347  A    between atoms: _758  and  _761
REMARK  348  A    between atoms: _759  and  _760
REMARK  349  A    between atoms: _765  and  _766
REMARK  350  A    between atoms: _768  and  _769
REMARK  351  A    between atoms: _769  and  _770
REMARK  352  A    between atoms: _769  and  _772
REMARK  353  A    between atoms: _775  and  _776
REMARK  354  A    between atoms: _776  and  _777
REMARK  355  A    between atoms: _776  and  _779
REMARK  356  A    between atoms: _779  and  _780
REMARK  357  A    between atoms: _783  and  _784
REMARK  358  A    between atoms: _784  and  _785
REMARK  359  A    between atoms: _788  and  _789
REMARK  360  A    between atoms: _789  and  _790
REMARK  361  A    between atoms: _789  and  _792
REMARK  362  A    between atoms: _792  and  _793
REMARK  363  A    between atoms: _793  and  _794
REMARK  364  A    between atoms: _794  and  _795
REMARK  365  A    between atoms: _797  and  _798
REMARK  366  A    between atoms: _798  and  _799
REMARK  367  A    between atoms: _798  and  _801
REMARK  368  A    between atoms: _803  and  _804
REMARK  369  A    between atoms: _804  and  _805
REMARK  370  A    between atoms: _807  and  _808
REMARK  371  A    between atoms: _808  and  _809
REMARK  372  A    between atoms: _808  and  _811
REMARK  373  A    between atoms: _814  and  _815
REMARK  374  A    between atoms: _815  and  _816
REMARK  375  A    between atoms: _815  and  _818
REMARK  376  A    between atoms: _818  and  _819
REMARK  377  A    between atoms: _819  and  _820
REMARK  378  A    between atoms: _820  and  _821
REMARK  379  A    between atoms: _823  and  _824
REMARK  380  A    between atoms: _824  and  _825
REMARK  381  A    between atoms: _828  and  _829
REMARK  382  A    between atoms: _829  and  _830
REMARK  383  A    between atoms: _829  and  _832
REMARK  384  A    between atoms: _832  and  _833
REMARK  385  A    between atoms: _839  and  _840
REMARK  386  A    between atoms: _840  and  _841
REMARK  387  A    between atoms: _840  and  _843
REMARK  388  A    between atoms: _843  and  _844
REMARK  389  A    between atoms: _844  and  _845
REMARK  390  A    between atoms: _847  and  _848
REMARK  391  A    between atoms: _848  and  _849
REMARK  392  A    between atoms: _848  and  _851
REMARK  393  A    between atoms: _851  and  _852
REMARK  394  A    between atoms: _852  and  _853
REMARK  395  A    between atoms: _856  and  _857
REMARK  396  A    between atoms: _857  and  _858
REMARK  397  A    between atoms: _861  and  _862
REMARK  398  A    between atoms: _862  and  _863
REMARK  399  A    between atoms: _862  and  _865
REMARK  400  A    between atoms: _865  and  _866
REMARK  401  A    between atoms: _869  and  _870
REMARK  402  A    between atoms: _870  and  _871
REMARK  403  A    between atoms: _870  and  _873
REMARK  404  A    between atoms: _873  and  _874
REMARK  405  A    between atoms: _874  and  _875
REMARK  406  A    between atoms: _878  and  _879
REMARK  407  A    between atoms: _879  and  _880
REMARK  408  A    between atoms: _883  and  _884
REMARK  409  A    between atoms: _884  and  _885
REMARK  410  A    between atoms: _887  and  _888
REMARK  411  A    between atoms: _888  and  _889
REMARK  412  A    between atoms: _892  and  _893
REMARK  413  A    between atoms: _893  and  _894
REMARK  414  A    between atoms: _893  and  _896
REMARK  415  A    between atoms: _896  and  _897
REMARK  416  A    between atoms: _900  and  _901
REMARK  417  A    between atoms: _901  and  _902
REMARK  418  A    between atoms: _901  and  _904
REMARK  419  A    between atoms: _904  and  _905
REMARK  420  A    between atoms: _908  and  _909
REMARK  421  A    between atoms: _909  and  _910
REMARK  422  A    between atoms: _909  and  _912
REMARK  423  A    between atoms: _914  and  _915
REMARK  424  A    between atoms: _915  and  _916
REMARK  425  A    between atoms: _915  and  _918
REMARK  426  A    between atoms: _918  and  _919
REMARK  427  A    between atoms: _919  and  _920
REMARK  428  A    between atoms: _922  and  _923
REMARK  429  A    between atoms: _923  and  _924
REMARK  430  A    between atoms: _923  and  _926
REMARK  431  A    between atoms: _926  and  _927
REMARK  432  A    between atoms: _930  and  _931
REMARK  433  A    between atoms: _931  and  _932
REMARK  434  A    between atoms: _934  and  _935
REMARK  435  A    between atoms: _935  and  _936
REMARK  436  A    between atoms: _935  and  _938
REMARK  437  A    between atoms: _938  and  _939
REMARK  438  A    between atoms: _939  and  _940
REMARK  439  A    between atoms: _943  and  _944
REMARK  440  A    between atoms: _944  and  _945
REMARK  441  A    between atoms: _944  and  _947
REMARK  442  A    between atoms: _947  and  _948
REMARK  443  A    between atoms: _954  and  _955
REMARK  444  A    between atoms: _955  and  _956
REMARK  445  A    between atoms: _958  and  _959
REMARK  446  A    between atoms: _959  and  _960
REMARK  447  A    between atoms: _959  and  _962
REMARK  448  A    between atoms: _965  and  _966
REMARK  449  A    between atoms: _966  and  _967
REMARK  450  A    between atoms: _969  and  _970
REMARK  451  A    between atoms: _970  and  _971
REMARK  452  A    between atoms: _970  and  _973
REMARK  453  A    between atoms: _973  and  _974
REMARK  454  A    between atoms: _980  and  _981
REMARK  455  A    between atoms: _981  and  _982
REMARK  456  A    between atoms: _981  and  _984
REMARK  457  A    between atoms: _984  and  _985
REMARK  458  A    between atoms: _992  and  _993
REMARK  459  A    between atoms: _993  and  _994
REMARK  460  A    between atoms: _993  and  _996
REMARK  461  A    between atoms: _998  and  _999
REMARK  462  A    between atoms: _999  and  _1000
REMARK  463  A    between atoms: _1003  and  _1004
REMARK  464  A    between atoms: _1004  and  _1005
REMARK  465  A    between atoms: _1004  and  _1007
REMARK  466  A    between atoms: _1007  and  _1008
REMARK  467  A    between atoms: _1015  and  _1016
REMARK  468  A    between atoms: _1016  and  _1017
REMARK  469  A    between atoms: _1016  and  _1019
REMARK  470  A    between atoms: _1019  and  _1020
REMARK  471  A    between atoms: _1023  and  _1024
REMARK  472  A    between atoms: _1024  and  _1025
REMARK  473  A    between atoms: _1024  and  _1027
REMARK  474  A    between atoms: _1030  and  _1031
REMARK  475  A    between atoms: _1031  and  _1032
REMARK  476  A    between atoms: _1035  and  _1036
REMARK  477  A    between atoms: _1036  and  _1037
REMARK  478  A    between atoms: _1036  and  _1039
REMARK  479  A    between atoms: _1039  and  _1040
REMARK  480  A    between atoms: _1040  and  _1041
REMARK  481  A    between atoms: _1044  and  _1045
REMARK  482  A    between atoms: _1045  and  _1046
REMARK  483  A    between atoms: _1045  and  _1048
REMARK  484  A    between atoms: _1048  and  _1049
REMARK  485  A    between atoms: _1049  and  _1050
REMARK  486  A    between atoms: _1050  and  _1051
REMARK  487  A    between atoms: _1053  and  _1054
REMARK  488  A    between atoms: _1054  and  _1055
REMARK  489  A    between atoms: _1054  and  _1057
REMARK  490  A    between atoms: _1060  and  _1061
REMARK  491  A    between atoms: _1061  and  _1062
REMARK  492  A    between atoms: _1061  and  _1064
REMARK  493  A    between atoms: _1067  and  _1068
REMARK  494  A    between atoms: _1068  and  _1069
REMARK  495  A    between atoms: _1068  and  _1071
REMARK  496  A    between atoms: _1074  and  _1075
REMARK  497  A    between atoms: _1075  and  _1076
REMARK  498  A    between atoms: _1075  and  _1078
REMARK  499  A    between atoms: _1078  and  _1079
REMARK  500  A    between atoms: _1082  and  _1083
REMARK  501  A    between atoms: _1083  and  _1084
REMARK  502  A    between atoms: _1083  and  _1086
REMARK  503  A    between atoms: _1089  and  _1090
REMARK  504  A    between atoms: _1090  and  _1091
REMARK  505  A    between atoms: _1090  and  _1093
REMARK  506  A    between atoms: _1093  and  _1094
REMARK  507  A    between atoms: _1094  and  _1095
REMARK  508  A    between atoms: _1095  and  _1096
REMARK  509  A    between atoms: _1098  and  _1099
REMARK  510  A    between atoms: _1099  and  _1100
REMARK  511  A    between atoms: _1099  and  _1102
REMARK  512  A    between atoms: _1102  and  _1103
REMARK  513  A    between atoms: _1108  and  _1109
REMARK  514  A    between atoms: _1109  and  _1110
REMARK  515  A    between atoms: _1109  and  _1112
REMARK  516  A    between atoms: _1112  and  _1113
REMARK  517  A    between atoms: _1116  and  _1117
REMARK  518  A    between atoms: _1117  and  _1118
REMARK  519  A    between atoms: _1117  and  _1120
REMARK  520  A    between atoms: _1120  and  _1121
REMARK  521  A    between atoms: _1124  and  _1125
REMARK  522  A    between atoms: _1125  and  _1126
REMARK  523  A    between atoms: _1125  and  _1128
REMARK  524  A    between atoms: _1128  and  _1129
REMARK  525  A    between atoms: _1132  and  _1133
REMARK  526  A    between atoms: _1133  and  _1134
REMARK  527  A    between atoms: _1133  and  _1136
REMARK  528  A    between atoms: _1136  and  _1137
REMARK  529  A    between atoms: _1137  and  _1138
REMARK  530  A    between atoms: _1141  and  _1142
REMARK  531  A    between atoms: _1142  and  _1143
REMARK  532  A    between atoms: _1142  and  _1145
REMARK  533  A    between atoms: _1145  and  _1146
REMARK  534  A    between atoms: _1146  and  _1147
REMARK  535  A    between atoms: _1150  and  _1151
REMARK  536  A    between atoms: _1151  and  _1152
REMARK  537  A    between atoms: _1151  and  _1154
REMARK  538  A    between atoms: _1154  and  _1155
REMARK  539  A    between atoms: _1162  and  _1163
REMARK  540  A    between atoms: _1163  and  _1164
REMARK  541  A    between atoms: _1167  and  _1168
REMARK  542  A    between atoms: _1168  and  _1169
REMARK  543  A    between atoms: _1168  and  _1171
REMARK  544  A    between atoms: _1171  and  _1172
REMARK  545  A    between atoms: _1181  and  _1182
REMARK  546  A    between atoms: _1182  and  _1183
REMARK  547  A    between atoms: _1182  and  _1185
REMARK  548  A    between atoms: _1185  and  _1186
REMARK  549  A    between atoms: _1186  and  _1187
REMARK  550  A    between atoms: _1190  and  _1191
REMARK  551  A    between atoms: _1191  and  _1192
REMARK  552  A    between atoms: _1191  and  _1194
REMARK  553  A    between atoms: _1196  and  _1197
REMARK  554  A    between atoms: _1197  and  _1198
REMARK  555  A    between atoms: _1197  and  _1200
REMARK  556  A    between atoms: _1202  and  _1203
REMARK  557  A    between atoms: _1203  and  _1204
REMARK  558  A    between atoms: _1207  and  _1208
REMARK  559  A    between atoms: _1208  and  _1209
REMARK  560  A    between atoms: _1211  and  _1212
REMARK  561  A    between atoms: _1212  and  _1213
REMARK  562  A    between atoms: _1215  and  _1216
REMARK  563  A    between atoms: _1216  and  _1217
REMARK  564  A    between atoms: _1216  and  _1219
REMARK  565  A    between atoms: _1221  and  _1222
REMARK  566  A    between atoms: _1222  and  _1223
REMARK  567  A    between atoms: _1222  and  _1225
REMARK  568  A    between atoms: _1225  and  _1226
REMARK  569  A    between atoms: _1232  and  _1233
REMARK  570  A    between atoms: _1233  and  _1234
REMARK  571  A    between atoms: _1233  and  _1236
REMARK  572  A    between atoms: _1239  and  _1240
REMARK  573  A    between atoms: _1240  and  _1241
REMARK  574  A    between atoms: _1240  and  _1243
REMARK  575  A    between atoms: _1247  and  _1249
REMARK  576  A    between atoms: _1247  and  _1252
REMARK  577  A    between atoms: _1251  and  _1252
REMARK  578  A    between atoms: _1251  and  _1254
REMARK  579  A    between atoms: _1253  and  _1254
REMARK  580  A    between atoms: _1253  and  _1256
REMARK  581  A    between atoms: _1254  and  _1255
REMARK  582  A    between atoms: _1255  and  _1257
REMARK  583  A    between atoms: _1256  and  _1258
REMARK  584  A    between atoms: _1265  and  _1266
REMARK  585  A    between atoms: _1266  and  _1267
REMARK  586  A    between atoms: _1266  and  _1269
REMARK  587  A    between atoms: _1272  and  _1273
REMARK  588  A    between atoms: _1273  and  _1274
REMARK  589  A    between atoms: _1273  and  _1276
REMARK  590  A    between atoms: _1276  and  _1277
REMARK  591  A    between atoms: _1280  and  _1281
REMARK  592  A    between atoms: _1281  and  _1282
REMARK  593  A    between atoms: _1281  and  _1284
REMARK  594  A    between atoms: _1287  and  _1288
REMARK  595  A    between atoms: _1288  and  _1289
REMARK  596  A    between atoms: _1291  and  _1292
REMARK  597  A    between atoms: _1292  and  _1293
REMARK  598  A    between atoms: _1292  and  _1295
REMARK  599  A    between atoms: _1295  and  _1296
REMARK  600  A    between atoms: _1296  and  _1297
REMARK  601  A    between atoms: _1301  and  _1302
REMARK  602  A    between atoms: _1307  and  _1308
REMARK  603  A    between atoms: _1308  and  _1309
REMARK  604  A    between atoms: _1308  and  _1311
REMARK  605  A    between atoms: _1311  and  _1312
REMARK  606  A    between atoms: _1312  and  _1313
REMARK  607  A    between atoms: _1315  and  _1316
REMARK  608  A    between atoms: _1316  and  _1317
REMARK  609  A    between atoms: _1319  and  _1320
REMARK  610  A    between atoms: _1320  and  _1321
REMARK  611  A    between atoms: _1320  and  _1323
REMARK  612  A    between atoms: _1323  and  _1324
REMARK  613  A    between atoms: _1324  and  _1325
REMARK  614  A    between atoms: _1325  and  _1326
REMARK  615  A    between atoms: _1330  and  _1331
REMARK  616  A    between atoms: _1331  and  _1332
REMARK  617  A    between atoms: _1334  and  _1335
REMARK  618  A    between atoms: _1335  and  _1336
REMARK  619  A    between atoms: _1335  and  _1338
REMARK  620  A    between atoms: _1341  and  _1342
REMARK  621  A    between atoms: _1342  and  _1343
REMARK  622  A    between atoms: _1342  and  _1345
REMARK  623  A    between atoms: _1345  and  _1346
REMARK  624  A    between atoms: _1346  and  _1347
REMARK  625  A    between atoms: _1347  and  _1348
REMARK  626  A    between atoms: _1350  and  _1351
REMARK  627  A    between atoms: _1351  and  _1352
REMARK  628  A    between atoms: _1351  and  _1354
REMARK  629  A    between atoms: _1357  and  _1358
REMARK  630  A    between atoms: _1358  and  _1359
REMARK  631  A    between atoms: _1358  and  _1361
REMARK  632  A    between atoms: _1361  and  _1362
REMARK  633  A    between atoms: _1365  and  _1366
REMARK  634  A    between atoms: _1366  and  _1367
REMARK  635  A    between atoms: _1366  and  _1369
REMARK  636  A    between atoms: _1369  and  _1370
REMARK  637  A    between atoms: _1373  and  _1374
REMARK  638  A    between atoms: _1374  and  _1375
REMARK  639  A    between atoms: _1374  and  _1377
REMARK  640  A    between atoms: _1377  and  _1378
REMARK  641  A    between atoms: _1383  and  _1384
REMARK  642  A    between atoms: _1384  and  _1385
REMARK  643  A    between atoms: _1384  and  _1387
REMARK  644  A    between atoms: _1387  and  _1388
REMARK  645  A    between atoms: _1391  and  _1392
REMARK  646  A    between atoms: _1392  and  _1393
REMARK  647  A    between atoms: _1392  and  _1395
REMARK  648  A    between atoms: _1395  and  _1396
REMARK  649  A    between atoms: _1396  and  _1397
REMARK  650  A    between atoms: _1397  and  _1398
REMARK  651  A    between atoms: _1400  and  _1401
REMARK  652  A    between atoms: _1401  and  _1402
REMARK  653  A    between atoms: _1401  and  _1404
REMARK  654  A    between atoms: _1404  and  _1405
REMARK  655  A    between atoms: _1405  and  _1406
REMARK  656  A    between atoms: _1409  and  _1410
REMARK  657  A    between atoms: _1410  and  _1411
REMARK  658  A    between atoms: _1410  and  _1413
REMARK  659  A    between atoms: _1413  and  _1414
REMARK  660  A    between atoms: _1417  and  _1418
REMARK  661  A    between atoms: _1418  and  _1419
REMARK  662  A    between atoms: _1418  and  _1421
REMARK  663  A    between atoms: _1421  and  _1422
REMARK  664  A    between atoms: _1422  and  _1423
REMARK  665  A    between atoms: _1426  and  _1427
REMARK  666  A    between atoms: _1427  and  _1428
REMARK  667  A    between atoms: _1427  and  _1430
REMARK  668  A    between atoms: _1433  and  _1434
REMARK  669  A    between atoms: _1434  and  _1435
REMARK  670  A    between atoms: _1434  and  _1437
REMARK  671  A    between atoms: _1437  and  _1438
REMARK  672  A    between atoms: _1438  and  _1439
REMARK  673  A    between atoms: _1442  and  _1443
REMARK  674  A    between atoms: _1443  and  _1444
REMARK  675  A    between atoms: _1443  and  _1446
REMARK  676  A    between atoms: _1446  and  _1447
REMARK  677  A    between atoms: _1454  and  _1455
REMARK  678  A    between atoms: _1455  and  _1456
REMARK  679  A    between atoms: _1455  and  _1458
REMARK  680  A    between atoms: _1458  and  _1459
REMARK  681  A    between atoms: _1462  and  _1463
REMARK  682  A    between atoms: _1463  and  _1464
REMARK  683  A    between atoms: _1463  and  _1466
REMARK  684  A    between atoms: _1466  and  _1467
REMARK  685  A    between atoms: _1467  and  _1468
REMARK  686  A    between atoms: _1471  and  _1472
REMARK  687  A    between atoms: _1472  and  _1473
REMARK  688  A    between atoms: _1472  and  _1475
REMARK  689  A    between atoms: _1475  and  _1476
REMARK  690  A    between atoms: _1476  and  _1477
REMARK  691  A    between atoms: _1480  and  _1481
REMARK  692  A    between atoms: _1481  and  _1482
REMARK  693  A    between atoms: _1481  and  _1484
REMARK  694  A    between atoms: _1484  and  _1485
REMARK  695  A    between atoms: _1485  and  _1486
REMARK  696  A    between atoms: _1486  and  _1487
REMARK  697  A    between atoms: _1491  and  _1492
REMARK  698  A    between atoms: _1492  and  _1493
REMARK  699  A    between atoms: _1492  and  _1495
REMARK  700  A    between atoms: _1495  and  _1496
REMARK  701  A    between atoms: _1496  and  _1497
REMARK  702  A    between atoms: _1497  and  _1498
REMARK  703  A    between atoms: _1502  and  _1503
REMARK  704  A    between atoms: _1503  and  _1504
REMARK  705  A    between atoms: _1503  and  _1506
REMARK  706  A    between atoms: _1506  and  _1507
REMARK  707  A    between atoms: _1510  and  _1511
REMARK  708  A    between atoms: _1511  and  _1512
REMARK  709  A    between atoms: _1511  and  _1514
REMARK  710  A    between atoms: _1514  and  _1515
REMARK  711  A    between atoms: _1515  and  _1516
REMARK  712  A    between atoms: _1516  and  _1517
REMARK  713  A    between atoms: _1519  and  _1520
REMARK  714  A    between atoms: _1520  and  _1521
REMARK  715  A    between atoms: _1520  and  _1523
REMARK  716  A    between atoms: _1523  and  _1524
REMARK  717  A    between atoms: _1524  and  _1525
REMARK  718  A    between atoms: _1528  and  _1529
REMARK  719  A    between atoms: _1529  and  _1530
REMARK  720  A    between atoms: _1529  and  _1532
REMARK  721  A    between atoms: _1532  and  _1533
REMARK  722  A    between atoms: _1536  and  _1537
REMARK  723  A    between atoms: _1537  and  _1538
REMARK  724  A    between atoms: _1537  and  _1540
REMARK  725  A    between atoms: _1543  and  _1544
REMARK  726  A    between atoms: _1544  and  _1545
REMARK  727  A    between atoms: _1544  and  _1547
REMARK  728  A    between atoms: _1547  and  _1548
REMARK  729  A    between atoms: _1548  and  _1549
REMARK  730  A    between atoms: _1549  and  _1550
REMARK  731  A    between atoms: _1552  and  _1553
REMARK  732  A    between atoms: _1553  and  _1554
REMARK  733  A    between atoms: _1553  and  _1556
REMARK  734  A    between atoms: _1556  and  _1557
REMARK  735  A    between atoms: _1557  and  _1558
REMARK  736  A    between atoms: _1558  and  _1559
REMARK  737  A    between atoms: _1561  and  _1562
REMARK  738  A    between atoms: _1562  and  _1563
REMARK  739  A    between atoms: _1562  and  _1565
REMARK  740  A    between atoms: _1565  and  _1566
REMARK  741  A    between atoms: _1571  and  _1572
REMARK  742  A    between atoms: _1572  and  _1573
REMARK  743  A    between atoms: _1572  and  _1575
REMARK  744  A    between atoms: _1577  and  _1578
REMARK  745  A    between atoms: _1578  and  _1579
REMARK  746  A    between atoms: _1578  and  _1581
REMARK  747  A    between atoms: _1581  and  _1582
REMARK  748  A    between atoms: _1582  and  _1583
REMARK  749  A    between atoms: _1586  and  _1587
REMARK  750  A    between atoms: _1587  and  _1588
REMARK  751  A    between atoms: _1587  and  _1590
REMARK  752  A    between atoms: _1590  and  _1591
REMARK  753  A    between atoms: _1597  and  _1598
REMARK  754  A    between atoms: _1598  and  _1599
REMARK  755  A    between atoms: _1598  and  _1601
REMARK  756  A    between atoms: _1601  and  _1602
REMARK  757  A    between atoms: _1605  and  _1606
REMARK  758  A    between atoms: _1606  and  _1607
REMARK  759  A    between atoms: _1609  and  _1610
REMARK  760  A    between atoms: _1610  and  _1611
REMARK  761  A    between atoms: _1610  and  _1613
REMARK  762  A    between atoms: _1613  and  _1614
REMARK  763  A    between atoms: _1622  and  _1623
REMARK  764  A    between atoms: _1628  and  _1629
REMARK  765  A    between atoms: _1629  and  _1630
REMARK  766  A    between atoms: _1629  and  _1632
REMARK  767  A    between atoms: _1632  and  _1633
REMARK  768  A    between atoms: _1636  and  _1637
REMARK  769  A    between atoms: _1637  and  _1638
REMARK  770  A    between atoms: _1637  and  _1640
REMARK  771  A    between atoms: _1643  and  _1644
REMARK  772  A    between atoms: _1644  and  _1645
REMARK  773  A    between atoms: _1644  and  _1647
REMARK  774  A    between atoms: _1647  and  _1648
REMARK  775  A    between atoms: _1651  and  _1652
REMARK  776  A    between atoms: _1652  and  _1653
REMARK  777  A    between atoms: _1652  and  _1655
REMARK  778  A    between atoms: _1655  and  _1656
REMARK  779  A    between atoms: _1662  and  _1663
REMARK  780  A    between atoms: _1663  and  _1664
REMARK  781  A    between atoms: _1663  and  _1666
REMARK  782  A    between atoms: _1669  and  _1670
REMARK  783  A    between atoms: _1670  and  _1671
REMARK  784  A    between atoms: _1670  and  _1673
REMARK  785  A    between atoms: _1673  and  _1674
REMARK  786  A    between atoms: _1674  and  _1675
REMARK                            x       y       z     vdW  Elec       q    Type
REMARK                         _______ _______ _______ _____ _____    ______ ____
ROOT
ATOM      1  N   UNL     1       9.770  17.821   3.489  0.00  0.00    -0.130 NA
ATOM      2  C   UNL     1       8.830  16.796   3.485  0.00  0.00    +0.130 C 
ENDROOT
TORSDOF 0
REMARK  Name = /Users/mlugowska/PhD/ML_residence_time_prediction/protein_files/5J64_protein.pdb
REMARK  786 active torsions:
REMARK  status: ('A' for Active; 'I' for Inactive)
REMARK    1  A    between atoms: _2  and  _3
REMARK    2  A    between atoms: _2  and  _5
REMARK    3  A    between atoms: _5  and  _6
REMARK    4  A    between atoms: _6  and  _7
REMARK    5  A    between atoms: _10  and  _11
REMARK    6  A    between atoms: _11  and  _12
REMARK    7  A    between atoms: _11  and  _14
REMARK    8  A    between atoms: _17  and  _18
REMARK    9  A    between atoms: _18  and  _19
REMARK   10  A    between atoms: _18  and  _21
REMARK   11  A    between atoms: _21  and  _22
REMARK   12  A    between atoms: _22  and  _23
REMARK   13  A    between atoms: _26  and  _27
REMARK   14  A    between atoms: _27  and  _28
REMARK   15  A    between atoms: _27  and  _30
REMARK   16  A    between atoms: _33  and  _34
REMARK   17  A    between atoms: _34  and  _35
REMARK   18  A    between atoms: _34  and  _37
REMARK   19  A    between atoms: _37  and  _38
REMARK   20  A    between atoms: _44  and  _45
REMARK   21  A    between atoms: _45  and  _46
REMARK   22  A    between atoms: _49  and  _50
REMARK   23  A    between atoms: _50  and  _51
REMARK   24  A    between atoms: _50  and  _53
REMARK   25  A    between atoms: _53  and  _54
REMARK   26  A    between atoms: _60  and  _61
REMARK   27  A    between atoms: _61  and  _62
REMARK   28  A    between atoms: _61  and  _64
REMARK   29  A    between atoms: _64  and  _65
REMARK   30  A    between atoms: _65  and  _66
REMARK   31  A    between atoms: _69  and  _70
REMARK   32  A    between atoms: _70  and  _71
REMARK   33  A    between atoms: _74  and  _75
REMARK   34  A    between atoms: _75  and  _76
REMARK   35  A    between atoms: _75  and  _78
REMARK   36  A    between atoms: _78  and  _79
REMARK   37  A    between atoms: _79  and  _80
REMARK   38  A    between atoms: _83  and  _84
REMARK   39  A    between atoms: _84  and  _85
REMARK   40  A    between atoms: _84  and  _87
REMARK   41  A    between atoms: _87  and  _88
REMARK   42  A    between atoms: _91  and  _92
REMARK   43  A    between atoms: _92  and  _93
REMARK   44  A    between atoms: _96  and  _97
REMARK   45  A    between atoms: _97  and  _98
REMARK   46  A    between atoms: _97  and  _100
REMARK   47  A    between atoms: _100  and  _101
REMARK   48  A    between atoms: _101  and  _102
REMARK   49  A    between atoms: _105  and  _106
REMARK   50  A    between atoms: _106  and  _107
REMARK   51  A    between atoms: _106  and  _109
REMARK   52  A    between atoms: _109  and  _110
REMARK   53  A    between atoms: _113  and  _114
REMARK   54  A    between atoms: _114  and  _115
REMARK   55  A    between atoms: _114  and  _117
REMARK   56  A    between atoms: _117  and  _118
REMARK   57  A    between atoms: _118  and  _119
REMARK   58  A    between atoms: _121  and  _122
REMARK   59  A    between atoms: _122  and  _123
REMARK   60  A    between atoms: _122  and  _125
REMARK   61  A    between atoms: _127  and  _128
REMARK   62  A    between atoms: _128  and  _129
REMARK   63  A    between atoms: _128  and  _131
REMARK   64  A    between atoms: _131  and  _132
REMARK   65  A    between atoms: _135  and  _136
REMARK   66  A    between atoms: _136  and  _137
REMARK   67  A    between atoms: _136  and  _139
REMARK   68  A    between atoms: _139  and  _140
REMARK   69  A    between atoms: _143  and  _144
REMARK   70  A    between atoms: _144  and  _145
REMARK   71  A    between atoms: _144  and  _147
REMARK   72  A    between atoms: _147  and  _148
REMARK   73  A    between atoms: _151  and  _152
REMARK   74  A    between atoms: _152  and  _153
REMARK   75  A    between atoms: _152  and  _155
REMARK   76  A    between atoms: _155  and  _156
REMARK   77  A    between atoms: _159  and  _160
REMARK   78  A    between atoms: _160  and  _161
REMARK   79  A    between atoms: _160  and  _163
REMARK   80  A    between atoms: _166  and  _167
REMARK   81  A    between atoms: _167  and  _170
REMARK   82  A    between atoms: _170  and  _171
REMARK   83  A    between atoms: _181  and  _183
REMARK   84  A    between atoms: _183  and  _184
REMARK   85  A    between atoms: _189  and  _194
REMARK   86  A    between atoms: _192  and  _195
REMARK   87  A    between atoms: _193  and  _194
REMARK   88  A    between atoms: _195  and  _196
REMARK   89  A    between atoms: _201  and  _202
REMARK   90  A    between atoms: _202  and  _203
REMARK   91  A    between atoms: _202  and  _205
REMARK   92  A    between atoms: _207  and  _208
REMARK   93  A    between atoms: _208  and  _209
REMARK   94  A    between atoms: _208  and  _211
REMARK   95  A    between atoms: _211  and  _212
REMARK   96  A    between atoms: _215  and  _216
REMARK   97  A    between atoms: _216  and  _217
REMARK   98  A    between atoms: _216  and  _219
REMARK   99  A    between atoms: _219  and  _220
REMARK  100  A    between atoms: _220  and  _221
REMARK  101  A    between atoms: _221  and  _222
REMARK  102  A    between atoms: _224  and  _225
REMARK  103  A    between atoms: _225  and  _226
REMARK  104  A    between atoms: _225  and  _228
REMARK  105  A    between atoms: _228  and  _229
REMARK  106  A    between atoms: _229  and  _230
REMARK  107  A    between atoms: _233  and  _234
REMARK  108  A    between atoms: _234  and  _235
REMARK  109  A    between atoms: _234  and  _237
REMARK  110  A    between atoms: _237  and  _238
REMARK  111  A    between atoms: _241  and  _242
REMARK  112  A    between atoms: _242  and  _243
REMARK  113  A    between atoms: _242  and  _245
REMARK  114  A    between atoms: _245  and  _246
REMARK  115  A    between atoms: _252  and  _253
REMARK  116  A    between atoms: _253  and  _254
REMARK  117  A    between atoms: _253  and  _256
REMARK  118  A    between atoms: _256  and  _257
REMARK  119  A    between atoms: _260  and  _261
REMARK  120  A    between atoms: _261  and  _262
REMARK  121  A    between atoms: _261  and  _264
REMARK  122  A    between atoms: _264  and  _265
REMARK  123  A    between atoms: _265  and  _266
REMARK  124  A    between atoms: _266  and  _267
REMARK  125  A    between atoms: _271  and  _272
REMARK  126  A    between atoms: _272  and  _273
REMARK  127  A    between atoms: _272  and  _275
REMARK  128  A    between atoms: _275  and  _276
REMARK  129  A    between atoms: _276  and  _277
REMARK  130  A    between atoms: _280  and  _281
REMARK  131  A    between atoms: _281  and  _282
REMARK  132  A    between atoms: _281  and  _284
REMARK  133  A    between atoms: _284  and  _285
REMARK  134  A    between atoms: _288  and  _289
REMARK  135  A    between atoms: _289  and  _292
REMARK  136  A    between atoms: _292  and  _293
REMARK  137  A    between atoms: _309  and  _310
REMARK  138  A    between atoms: _309  and  _312
REMARK  139  A    between atoms: _312  and  _313
REMARK  140  A    between atoms: _316  and  _317
REMARK  141  A    between atoms: _317  and  _318
REMARK  142  A    between atoms: _317  and  _320
REMARK  143  A    between atoms: _322  and  _323
REMARK  144  A    between atoms: _323  and  _324
REMARK  145  A    between atoms: _323  and  _326
REMARK  146  A    between atoms: _328  and  _329
REMARK  147  A    between atoms: _329  and  _330
REMARK  148  A    between atoms: _329  and  _332
REMARK  149  A    between atoms: _332  and  _333
REMARK  150  A    between atoms: _336  and  _337
REMARK  151  A    between atoms: _337  and  _338
REMARK  152  A    between atoms: _341  and  _342
REMARK  153  A    between atoms: _342  and  _343
REMARK  154  A    between atoms: _342  and  _345
REMARK  155  A    between atoms: _345  and  _346
REMARK  156  A    between atoms: _349  and  _350
REMARK  157  A    between atoms: _350  and  _351
REMARK  158  A    between atoms: _350  and  _353
REMARK  159  A    between atoms: _353  and  _354
REMARK  160  A    between atoms: _357  and  _358
REMARK  161  A    between atoms: _358  and  _359
REMARK  162  A    between atoms: _358  and  _361
REMARK  163  A    between atoms: _361  and  _362
REMARK  164  A    between atoms: _362  and  _363
REMARK  165  A    between atoms: _363  and  _364
REMARK  166  A    between atoms: _366  and  _367
REMARK  167  A    between atoms: _367  and  _368
REMARK  168  A    between atoms: _367  and  _370
REMARK  169  A    between atoms: _370  and  _371
REMARK  170  A    between atoms: _374  and  _375
REMARK  171  A    between atoms: _375  and  _376
REMARK  172  A    between atoms: _375  and  _378
REMARK  173  A    between atoms: _378  and  _379
REMARK  174  A    between atoms: _379  and  _380
REMARK  175  A    between atoms: _380  and  _381
REMARK  176  A    between atoms: _385  and  _386
REMARK  177  A    between atoms: _386  and  _387
REMARK  178  A    between atoms: _386  and  _389
REMARK  179  A    between atoms: _389  and  _390
REMARK  180  A    between atoms: _397  and  _398
REMARK  181  A    between atoms: _398  and  _399
REMARK  182  A    between atoms: _398  and  _401
REMARK  183  A    between atoms: _401  and  _402
REMARK  184  A    between atoms: _402  and  _403
REMARK  185  A    between atoms: _406  and  _407
REMARK  186  A    between atoms: _407  and  _408
REMARK  187  A    between atoms: _407  and  _410
REMARK  188  A    between atoms: _412  and  _413
REMARK  189  A    between atoms: _413  and  _414
REMARK  190  A    between atoms: _413  and  _416
REMARK  191  A    between atoms: _416  and  _417
REMARK  192  A    between atoms: _420  and  _421
REMARK  193  A    between atoms: _421  and  _422
REMARK  194  A    between atoms: _421  and  _424
REMARK  195  A    between atoms: _427  and  _428
REMARK  196  A    between atoms: _428  and  _429
REMARK  197  A    between atoms: _428  and  _431
REMARK  198  A    between atoms: _431  and  _432
REMARK  199  A    between atoms: _436  and  _437
REMARK  200  A    between atoms: _442  and  _443
REMARK  201  A    between atoms: _443  and  _444
REMARK  202  A    between atoms: _443  and  _446
REMARK  203  A    between atoms: _448  and  _449
REMARK  204  A    between atoms: _449  and  _450
REMARK  205  A    between atoms: _449  and  _452
REMARK  206  A    between atoms: _452  and  _453
REMARK  207  A    between atoms: _453  and  _454
REMARK  208  A    between atoms: _454  and  _455
REMARK  209  A    between atoms: _457  and  _458
REMARK  210  A    between atoms: _458  and  _459
REMARK  211  A    between atoms: _458  and  _461
REMARK  212  A    between atoms: _461  and  _462
REMARK  213  A    between atoms: _465  and  _466
REMARK  214  A    between atoms: _466  and  _467
REMARK  215  A    between atoms: _466  and  _469
REMARK  216  A    between atoms: _469  and  _470
REMARK  217  A    between atoms: _473  and  _474
REMARK  218  A    between atoms: _474  and  _475
REMARK  219  A    between atoms: _474  and  _477
REMARK  220  A    between atoms: _479  and  _480
REMARK  221  A    between atoms: _480  and  _481
REMARK  222  A    between atoms: _483  and  _484
REMARK  223  A    between atoms: _484  and  _485
REMARK  224  A    between atoms: _484  and  _487
REMARK  225  A    between atoms: _487  and  _488
REMARK  226  A    between atoms: _488  and  _489
REMARK  227  A    between atoms: _489  and  _490
REMARK  228  A    between atoms: _492  and  _493
REMARK  229  A    between atoms: _493  and  _494
REMARK  230  A    between atoms: _493  and  _496
REMARK  231  A    between atoms: _496  and  _497
REMARK  232  A    between atoms: _497  and  _498
REMARK  233  A    between atoms: _501  and  _502
REMARK  234  A    between atoms: _502  and  _503
REMARK  235  A    between atoms: _502  and  _505
REMARK  236  A    between atoms: _505  and  _506
REMARK  237  A    between atoms: _509  and  _510
REMARK  238  A    between atoms: _510  and  _511
REMARK  239  A    between atoms: _510  and  _513
REMARK  240  A    between atoms: _513  and  _514
REMARK  241  A    between atoms: _519  and  _520
REMARK  242  A    between atoms: _520  and  _521
REMARK  243  A    between atoms: _520  and  _523
REMARK  244  A    between atoms: _523  and  _524
REMARK  245  A    between atoms: _527  and  _528
REMARK  246  A    between atoms: _528  and  _529
REMARK  247  A    between atoms: _528  and  _531
REMARK  248  A    between atoms: _531  and  _532
REMARK  249  A    between atoms: _535  and  _536
REMARK  250  A    between atoms: _536  and  _537
REMARK  251  A    between atoms: _536  and  _539
REMARK  252  A    between atoms: _539  and  _540
REMARK  253  A    between atoms: _543  and  _544
REMARK  254  A    between atoms: _544  and  _545
REMARK  255  A    between atoms: _544  and  _547
REMARK  256  A    between atoms: _547  and  _548
REMARK  257  A    between atoms: _552  and  _553
REMARK  258  A    between atoms: _558  and  _559
REMARK  259  A    between atoms: _559  and  _560
REMARK  260  A    between atoms: _559  and  _562
REMARK  261  A    between atoms: _562  and  _563
REMARK  262  A    between atoms: _566  and  _567
REMARK  263  A    between atoms: _567  and  _568
REMARK  264  A    between atoms: _567  and  _570
REMARK  265  A    between atoms: _570  and  _571
REMARK  266  A    between atoms: _571  and  _572
REMARK  267  A    between atoms: _572  and  _573
REMARK  268  A    between atoms: _575  and  _576
REMARK  269  A    between atoms: _576  and  _577
REMARK  270  A    between atoms: _576  and  _579
REMARK  271  A    between atoms: _579  and  _580
REMARK  272  A    between atoms: _580  and  _581
REMARK  273  A    between atoms: _584  and  _585
REMARK  274  A    between atoms: _585  and  _586
REMARK  275  A    between atoms: _585  and  _588
REMARK  276  A    between atoms: _588  and  _589
REMARK  277  A    between atoms: _592  and  _593
REMARK  278  A    between atoms: _593  and  _594
REMARK  279  A    between atoms: _593  and  _596
REMARK  280  A    between atoms: _596  and  _597
REMARK  281  A    between atoms: _597  and  _598
REMARK  282  A    between atoms: _598  and  _599
REMARK  283  A    between atoms: _603  and  _604
REMARK  284  A    between atoms: _604  and  _605
REMARK  285  A    between atoms: _604  and  _607
REMARK  286  A    between atoms: _610  and  _611
REMARK  287  A    between atoms: _611  and  _612
REMARK  288  A    between atoms: _611  and  _614
REMARK  289  A    between atoms: _614  and  _615
REMARK  290  A    between atoms: _618  and  _619
REMARK  291  A    between atoms: _619  and  _620
REMARK  292  A    between atoms: _619  and  _622
REMARK  293  A    between atoms: _625  and  _626
REMARK  294  A    between atoms: _626  and  _627
REMARK  295  A    between atoms: _626  and  _629
REMARK  296  A    between atoms: _629  and  _630
REMARK  297  A    between atoms: _633  and  _634
REMARK  298  A    between atoms: _634  and  _635
REMARK  299  A    between atoms: _634  and  _637
REMARK  300  A    between atoms: _640  and  _641
REMARK  301  A    between atoms: _641  and  _642
REMARK  302  A    between atoms: _641  and  _644
REMARK  303  A    between atoms: _644  and  _645
REMARK  304  A    between atoms: _648  and  _649
REMARK  305  A    between atoms: _649  and  _650
REMARK  306  A    between atoms: _649  and  _652
REMARK  307  A    between atoms: _655  and  _656
REMARK  308  A    between atoms: _656  and  _657
REMARK  309  A    between atoms: _659  and  _660
REMARK  310  A    between atoms: _660  and  _661
REMARK  311  A    between atoms: _660  and  _663
REMARK  312  A    between atoms: _663  and  _664
REMARK  313  A    between atoms: _667  and  _668
REMARK  314  A    between atoms: _668  and  _669
REMARK  315  A    between atoms: _671  and  _672
REMARK  316  A    between atoms: _672  and  _673
REMARK  317  A    between atoms: _672  and  _675
REMARK  318  A    between atoms: _675  and  _676
REMARK  319  A    between atoms: _676  and  _677
REMARK  320  A    between atoms: _679  and  _680
REMARK  321  A    between atoms: _680  and  _681
REMARK  322  A    between atoms: _680  and  _683
REMARK  323  A    between atoms: _686  and  _687
REMARK  324  A    between atoms: _687  and  _688
REMARK  325  A    between atoms: _687  and  _690
REMARK  326  A    between atoms: _690  and  _691
REMARK  327  A    between atoms: _691  and  _692
REMARK  328  A    between atoms: _692  and  _693
REMARK  329  A    between atoms: _695  and  _696
REMARK  330  A    between atoms: _696  and  _697
REMARK  331  A    between atoms: _700  and  _701
REMARK  332  A    between atoms: _701  and  _702
REMARK  333  A    between atoms: _701  and  _704
REMARK  334  A    between atoms: _704  and  _705
REMARK  335  A    between atoms: _708  and  _709
REMARK  336  A    between atoms: _709  and  _710
REMARK  337  A    between atoms: _709  and  _712
REMARK  338  A    between atoms: _712  and  _713
REMARK  339  A    between atoms: _716  and  _717
REMARK  340  A    between atoms: _717  and  _720
REMARK  341  A    between atoms: _720  and  _721
REMARK  342  A    between atoms: _733  and  _734
REMARK  343  A    between atoms: _733  and  _735
REMARK  344  A    between atoms: _741  and  _744
REMARK  345  A    between atoms: _744  and  _745
REMARK  346  A    between atoms: _758  and  _759
REMARK  347  A    between atoms: _758  and  _761
REMARK  348  A    between atoms: _759  and  _760
REMARK  349  A    between atoms: _765  and  _766
REMARK  350  A    between atoms: _768  and  _769
REMARK  351  A    between atoms: _769  and  _770
REMARK  352  A    between atoms: _769  and  _772
REMARK  353  A    between atoms: _775  and  _776
REMARK  354  A    between atoms: _776  and  _777
REMARK  355  A    between atoms: _776  and  _779
REMARK  356  A    between atoms: _779  and  _780
REMARK  357  A    between atoms: _783  and  _784
REMARK  358  A    between atoms: _784  and  _785
REMARK  359  A    between atoms: _788  and  _789
REMARK  360  A    between atoms: _789  and  _790
REMARK  361  A    between atoms: _789  and  _792
REMARK  362  A    between atoms: _792  and  _793
REMARK  363  A    between atoms: _793  and  _794
REMARK  364  A    between atoms: _794  and  _795
REMARK  365  A    between atoms: _797  and  _798
REMARK  366  A    between atoms: _798  and  _799
REMARK  367  A    between atoms: _798  and  _801
REMARK  368  A    between atoms: _803  and  _804
REMARK  369  A    between atoms: _804  and  _805
REMARK  370  A    between atoms: _807  and  _808
REMARK  371  A    between atoms: _808  and  _809
REMARK  372  A    between atoms: _808  and  _811
REMARK  373  A    between atoms: _814  and  _815
REMARK  374  A    between atoms: _815  and  _816
REMARK  375  A    between atoms: _815  and  _818
REMARK  376  A    between atoms: _818  and  _819
REMARK  377  A    between atoms: _819  and  _820
REMARK  378  A    between atoms: _820  and  _821
REMARK  379  A    between atoms: _823  and  _824
REMARK  380  A    between atoms: _824  and  _825
REMARK  381  A    between atoms: _828  and  _829
REMARK  382  A    between atoms: _829  and  _830
REMARK  383  A    between atoms: _829  and  _832
REMARK  384  A    between atoms: _832  and  _833
REMARK  385  A    between atoms: _839  and  _840
REMARK  386  A    between atoms: _840  and  _841
REMARK  387  A    between atoms: _840  and  _843
REMARK  388  A    between atoms: _843  and  _844
REMARK  389  A    between atoms: _844  and  _845
REMARK  390  A    between atoms: _847  and  _848
REMARK  391  A    between atoms: _848  and  _849
REMARK  392  A    between atoms: _848  and  _851
REMARK  393  A    between atoms: _851  and  _852
REMARK  394  A    between atoms: _852  and  _853
REMARK  395  A    between atoms: _856  and  _857
REMARK  396  A    between atoms: _857  and  _858
REMARK  397  A    between atoms: _861  and  _862
REMARK  398  A    between atoms: _862  and  _863
REMARK  399  A    between atoms: _862  and  _865
REMARK  400  A    between atoms: _865  and  _866
REMARK  401  A    between atoms: _869  and  _870
REMARK  402  A    between atoms: _870  and  _871
REMARK  403  A    between atoms: _870  and  _873
REMARK  404  A    between atoms: _873  and  _874
REMARK  405  A    between atoms: _874  and  _875
REMARK  406  A    between atoms: _878  and  _879
REMARK  407  A    between atoms: _879  and  _880
REMARK  408  A    between atoms: _883  and  _884
REMARK  409  A    between atoms: _884  and  _885
REMARK  410  A    between atoms: _887  and  _888
REMARK  411  A    between atoms: _888  and  _889
REMARK  412  A    between atoms: _892  and  _893
REMARK  413  A    between atoms: _893  and  _894
REMARK  414  A    between atoms: _893  and  _896
REMARK  415  A    between atoms: _896  and  _897
REMARK  416  A    between atoms: _900  and  _901
REMARK  417  A    between atoms: _901  and  _902
REMARK  418  A    between atoms: _901  and  _904
REMARK  419  A    between atoms: _904  and  _905
REMARK  420  A    between atoms: _908  and  _909
REMARK  421  A    between atoms: _909  and  _910
REMARK  422  A    between atoms: _909  and  _912
REMARK  423  A    between atoms: _914  and  _915
REMARK  424  A    between atoms: _915  and  _916
REMARK  425  A    between atoms: _915  and  _918
REMARK  426  A    between atoms: _918  and  _919
REMARK  427  A    between atoms: _919  and  _920
REMARK  428  A    between atoms: _922  and  _923
REMARK  429  A    between atoms: _923  and  _924
REMARK  430  A    between atoms: _923  and  _926
REMARK  431  A    between atoms: _926  and  _927
REMARK  432  A    between atoms: _930  and  _931
REMARK  433  A    between atoms: _931  and  _932
REMARK  434  A    between atoms: _934  and  _935
REMARK  435  A    between atoms: _935  and  _936
REMARK  436  A    between atoms: _935  and  _938
REMARK  437  A    between atoms: _938  and  _939
REMARK  438  A    between atoms: _939  and  _940
REMARK  439  A    between atoms: _943  and  _944
REMARK  440  A    between atoms: _944  and  _945
REMARK  441  A    between atoms: _944  and  _947
REMARK  442  A    between atoms: _947  and  _948
REMARK  443  A    between atoms: _954  and  _955
REMARK  444  A    between atoms: _955  and  _956
REMARK  445  A    between atoms: _958  and  _959
REMARK  446  A    between atoms: _959  and  _960
REMARK  447  A    between atoms: _959  and  _962
REMARK  448  A    between atoms: _965  and  _966
REMARK  449  A    between atoms: _966  and  _967
REMARK  450  A    between atoms: _969  and  _970
REMARK  451  A    between atoms: _970  and  _971
REMARK  452  A    between atoms: _970  and  _973
REMARK  453  A    between atoms: _973  and  _974
REMARK  454  A    between atoms: _980  and  _981
REMARK  455  A    between atoms: _981  and  _982
REMARK  456  A    between atoms: _981  and  _984
REMARK  457  A    between atoms: _984  and  _985
REMARK  458  A    between atoms: _992  and  _993
REMARK  459  A    between atoms: _993  and  _994
REMARK  460  A    between atoms: _993  and  _996
REMARK  461  A    between atoms: _998  and  _999
REMARK  462  A    between atoms: _999  and  _1000
REMARK  463  A    between atoms: _1003  and  _1004
REMARK  464  A    between atoms: _1004  and  _1005
REMARK  465  A    between atoms: _1004  and  _1007
REMARK  466  A    between atoms: _1007  and  _1008
REMARK  467  A    between atoms: _1015  and  _1016
REMARK  468  A    between atoms: _1016  and  _1017
REMARK  469  A    between atoms: _1016  and  _1019
REMARK  470  A    between atoms: _1019  and  _1020
REMARK  471  A    between atoms: _1023  and  _1024
REMARK  472  A    between atoms: _1024  and  _1025
REMARK  473  A    between atoms: _1024  and  _1027
REMARK  474  A    between atoms: _1030  and  _1031
REMARK  475  A    between atoms: _1031  and  _1032
REMARK  476  A    between atoms: _1035  and  _1036
REMARK  477  A    between atoms: _1036  and  _1037
REMARK  478  A    between atoms: _1036  and  _1039
REMARK  479  A    between atoms: _1039  and  _1040
REMARK  480  A    between atoms: _1040  and  _1041
REMARK  481  A    between atoms: _1044  and  _1045
REMARK  482  A    between atoms: _1045  and  _1046
REMARK  483  A    between atoms: _1045  and  _1048
REMARK  484  A    between atoms: _1048  and  _1049
REMARK  485  A    between atoms: _1049  and  _1050
REMARK  486  A    between atoms: _1050  and  _1051
REMARK  487  A    between atoms: _1053  and  _1054
REMARK  488  A    between atoms: _1054  and  _1055
REMARK  489  A    between atoms: _1054  and  _1057
REMARK  490  A    between atoms: _1060  and  _1061
REMARK  491  A    between atoms: _1061  and  _1062
REMARK  492  A    between atoms: _1061  and  _1064
REMARK  493  A    between atoms: _1067  and  _1068
REMARK  494  A    between atoms: _1068  and  _1069
REMARK  495  A    between atoms: _1068  and  _1071
REMARK  496  A    between atoms: _1074  and  _1075
REMARK  497  A    between atoms: _1075  and  _1076
REMARK  498  A    between atoms: _1075  and  _1078
REMARK  499  A    between atoms: _1078  and  _1079
REMARK  500  A    between atoms: _1082  and  _1083
REMARK  501  A    between atoms: _1083  and  _1084
REMARK  502  A    between atoms: _1083  and  _1086
REMARK  503  A    between atoms: _1089  and  _1090
REMARK  504  A    between atoms: _1090  and  _1091
REMARK  505  A    between atoms: _1090  and  _1093
REMARK  506  A    between atoms: _1093  and  _1094
REMARK  507  A    between atoms: _1094  and  _1095
REMARK  508  A    between atoms: _1095  and  _1096
REMARK  509  A    between atoms: _1098  and  _1099
REMARK  510  A    between atoms: _1099  and  _1100
REMARK  511  A    between atoms: _1099  and  _1102
REMARK  512  A    between atoms: _1102  and  _1103
REMARK  513  A    between atoms: _1108  and  _1109
REMARK  514  A    between atoms: _1109  and  _1110
REMARK  515  A    between atoms: _1109  and  _1112
REMARK  516  A    between atoms: _1112  and  _1113
REMARK  517  A    between atoms: _1116  and  _1117
REMARK  518  A    between atoms: _1117  and  _1118
REMARK  519  A    between atoms: _1117  and  _1120
REMARK  520  A    between atoms: _1120  and  _1121
REMARK  521  A    between atoms: _1124  and  _1125
REMARK  522  A    between atoms: _1125  and  _1126
REMARK  523  A    between atoms: _1125  and  _1128
REMARK  524  A    between atoms: _1128  and  _1129
REMARK  525  A    between atoms: _1132  and  _1133
REMARK  526  A    between atoms: _1133  and  _1134
REMARK  527  A    between atoms: _1133  and  _1136
REMARK  528  A    between atoms: _1136  and  _1137
REMARK  529  A    between atoms: _1137  and  _1138
REMARK  530  A    between atoms: _1141  and  _1142
REMARK  531  A    between atoms: _1142  and  _1143
REMARK  532  A    between atoms: _1142  and  _1145
REMARK  533  A    between atoms: _1145  and  _1146
REMARK  534  A    between atoms: _1146  and  _1147
REMARK  535  A    between atoms: _1150  and  _1151
REMARK  536  A    between atoms: _1151  and  _1152
REMARK  537  A    between atoms: _1151  and  _1154
REMARK  538  A    between atoms: _1154  and  _1155
REMARK  539  A    between atoms: _1162  and  _1163
REMARK  540  A    between atoms: _1163  and  _1164
REMARK  541  A    between atoms: _1167  and  _1168
REMARK  542  A    between atoms: _1168  and  _1169
REMARK  543  A    between atoms: _1168  and  _1171
REMARK  544  A    between atoms: _1171  and  _1172
REMARK  545  A    between atoms: _1181  and  _1182
REMARK  546  A    between atoms: _1182  and  _1183
REMARK  547  A    between atoms: _1182  and  _1185
REMARK  548  A    between atoms: _1185  and  _1186
REMARK  549  A    between atoms: _1186  and  _1187
REMARK  550  A    between atoms: _1190  and  _1191
REMARK  551  A    between atoms: _1191  and  _1192
REMARK  552  A    between atoms: _1191  and  _1194
REMARK  553  A    between atoms: _1196  and  _1197
REMARK  554  A    between atoms: _1197  and  _1198
REMARK  555  A    between atoms: _1197  and  _1200
REMARK  556  A    between atoms: _1202  and  _1203
REMARK  557  A    between atoms: _1203  and  _1204
REMARK  558  A    between atoms: _1207  and  _1208
REMARK  559  A    between atoms: _1208  and  _1209
REMARK  560  A    between atoms: _1211  and  _1212
REMARK  561  A    between atoms: _1212  and  _1213
REMARK  562  A    between atoms: _1215  and  _1216
REMARK  563  A    between atoms: _1216  and  _1217
REMARK  564  A    between atoms: _1216  and  _1219
REMARK  565  A    between atoms: _1221  and  _1222
REMARK  566  A    between atoms: _1222  and  _1223
REMARK  567  A    between atoms: _1222  and  _1225
REMARK  568  A    between atoms: _1225  and  _1226
REMARK  569  A    between atoms: _1232  and  _1233
REMARK  570  A    between atoms: _1233  and  _1234
REMARK  571  A    between atoms: _1233  and  _1236
REMARK  572  A    between atoms: _1239  and  _1240
REMARK  573  A    between atoms: _1240  and  _1241
REMARK  574  A    between atoms: _1240  and  _1243
REMARK  575  A    between atoms: _1247  and  _1249
REMARK  576  A    between atoms: _1247  and  _1252
REMARK  577  A    between atoms: _1251  and  _1252
REMARK  578  A    between atoms: _1251  and  _1254
REMARK  579  A    between atoms: _1253  and  _1254
REMARK  580  A    between atoms: _1253  and  _1256
REMARK  581  A    between atoms: _1254  and  _1255
REMARK  582  A    between atoms: _1255  and  _1257
REMARK  583  A    between atoms: _1256  and  _1258
REMARK  584  A    between atoms: _1265  and  _1266
REMARK  585  A    between atoms: _1266  and  _1267
REMARK  586  A    between atoms: _1266  and  _1269
REMARK  587  A    between atoms: _1272  and  _1273
REMARK  588  A    between atoms: _1273  and  _1274
REMARK  589  A    between atoms: _1273  and  _1276
REMARK  590  A    between atoms: _1276  and  _1277
REMARK  591  A    between atoms: _1280  and  _1281
REMARK  592  A    between atoms: _1281  and  _1282
REMARK  593  A    between atoms: _1281  and  _1284
REMARK  594  A    between atoms: _1287  and  _1288
REMARK  595  A    between atoms: _1288  and  _1289
REMARK  596  A    between atoms: _1291  and  _1292
REMARK  597  A    between atoms: _1292  and  _1293
REMARK  598  A    between atoms: _1292  and  _1295
REMARK  599  A    between atoms: _1295  and  _1296
REMARK  600  A    between atoms: _1296  and  _1297
REMARK  601  A    between atoms: _1301  and  _1302
REMARK  602  A    between atoms: _1307  and  _1308
REMARK  603  A    between atoms: _1308  and  _1309
REMARK  604  A    between atoms: _1308  and  _1311
REMARK  605  A    between atoms: _1311  and  _1312
REMARK  606  A    between atoms: _1312  and  _1313
REMARK  607  A    between atoms: _1315  and  _1316
REMARK  608  A    between atoms: _1316  and  _1317
REMARK  609  A    between atoms: _1319  and  _1320
REMARK  610  A    between atoms: _1320  and  _1321
REMARK  611  A    between atoms: _1320  and  _1323
REMARK  612  A    between atoms: _1323  and  _1324
REMARK  613  A    between atoms: _1324  and  _1325
REMARK  614  A    between atoms: _1325  and  _1326
REMARK  615  A    between atoms: _1330  and  _1331
REMARK  616  A    between atoms: _1331  and  _1332
REMARK  617  A    between atoms: _1334  and  _1335
REMARK  618  A    between atoms: _1335  and  _1336
REMARK  619  A    between atoms: _1335  and  _1338
REMARK  620  A    between atoms: _1341  and  _1342
REMARK  621  A    between atoms: _1342  and  _1343
REMARK  622  A    between atoms: _1342  and  _1345
REMARK  623  A    between atoms: _1345  and  _1346
REMARK  624  A    between atoms: _1346  and  _1347
REMARK  625  A    between atoms: _1347  and  _1348
REMARK  626  A    between atoms: _1350  and  _1351
REMARK  627  A    between atoms: _1351  and  _1352
REMARK  628  A    between atoms: _1351  and  _1354
REMARK  629  A    between atoms: _1357  and  _1358
REMARK  630  A    between atoms: _1358  and  _1359
REMARK  631  A    between atoms: _1358  and  _1361
REMARK  632  A    between atoms: _1361  and  _1362
REMARK  633  A    between atoms: _1365  and  _1366
REMARK  634  A    between atoms: _1366  and  _1367
REMARK  635  A    between atoms: _1366  and  _1369
REMARK  636  A    between atoms: _1369  and  _1370
REMARK  637  A    between atoms: _1373  and  _1374
REMARK  638  A    between atoms: _1374  and  _1375
REMARK  639  A    between atoms: _1374  and  _1377
REMARK  640  A    between atoms: _1377  and  _1378
REMARK  641  A    between atoms: _1383  and  _1384
REMARK  642  A    between atoms: _1384  and  _1385
REMARK  643  A    between atoms: _1384  and  _1387
REMARK  644  A    between atoms: _1387  and  _1388
REMARK  645  A    between atoms: _1391  and  _1392
REMARK  646  A    between atoms: _1392  and  _1393
REMARK  647  A    between atoms: _1392  and  _1395
REMARK  648  A    between atoms: _1395  and  _1396
REMARK  649  A    between atoms: _1396  and  _1397
REMARK  650  A    between atoms: _1397  and  _1398
REMARK  651  A    between atoms: _1400  and  _1401
REMARK  652  A    between atoms: _1401  and  _1402
REMARK  653  A    between atoms: _1401  and  _1404
REMARK  654  A    between atoms: _1404  and  _1405
REMARK  655  A    between atoms: _1405  and  _1406
REMARK  656  A    between atoms: _1409  and  _1410
REMARK  657  A    between atoms: _1410  and  _1411
REMARK  658  A    between atoms: _1410  and  _1413
REMARK  659  A    between atoms: _1413  and  _1414
REMARK  660  A    between atoms: _1417  and  _1418
REMARK  661  A    between atoms: _1418  and  _1419
REMARK  662  A    between atoms: _1418  and  _1421
REMARK  663  A    between atoms: _1421  and  _1422
REMARK  664  A    between atoms: _1422  and  _1423
REMARK  665  A    between atoms: _1426  and  _1427
REMARK  666  A    between atoms: _1427  and  _1428
REMARK  667  A    between atoms: _1427  and  _1430
REMARK  668  A    between atoms: _1433  and  _1434
REMARK  669  A    between atoms: _1434  and  _1435
REMARK  670  A    between atoms: _1434  and  _1437
REMARK  671  A    between atoms: _1437  and  _1438
REMARK  672  A    between atoms: _1438  and  _1439
REMARK  673  A    between atoms: _1442  and  _1443
REMARK  674  A    between atoms: _1443  and  _1444
REMARK  675  A    between atoms: _1443  and  _1446
REMARK  676  A    between atoms: _1446  and  _1447
REMARK  677  A    between atoms: _1454  and  _1455
REMARK  678  A    between atoms: _1455  and  _1456
REMARK  679  A    between atoms: _1455  and  _1458
REMARK  680  A    between atoms: _1458  and  _1459
REMARK  681  A    between atoms: _1462  and  _1463
REMARK  682  A    between atoms: _1463  and  _1464
REMARK  683  A    between atoms: _1463  and  _1466
REMARK  684  A    between atoms: _1466  and  _1467
REMARK  685  A    between atoms: _1467  and  _1468
REMARK  686  A    between atoms: _1471  and  _1472
REMARK  687  A    between atoms: _1472  and  _1473
REMARK  688  A    between atoms: _1472  and  _1475
REMARK  689  A    between atoms: _1475  and  _1476
REMARK  690  A    between atoms: _1476  and  _1477
REMARK  691  A    between atoms: _1480  and  _1481
REMARK  692  A    between atoms: _1481  and  _1482
REMARK  693  A    between atoms: _1481  and  _1484
REMARK  694  A    between atoms: _1484  and  _1485
REMARK  695  A    between atoms: _1485  and  _1486
REMARK  696  A    between atoms: _1486  and  _1487
REMARK  697  A    between atoms: _1491  and  _1492
REMARK  698  A    between atoms: _1492  and  _1493
REMARK  699  A    between atoms: _1492  and  _1495
REMARK  700  A    between atoms: _1495  and  _1496
REMARK  701  A    between atoms: _1496  and  _1497
REMARK  702  A    between atoms: _1497  and  _1498
REMARK  703  A    between atoms: _1502  and  _1503
REMARK  704  A    between atoms: _1503  and  _1504
REMARK  705  A    between atoms: _1503  and  _1506
REMARK  706  A    between atoms: _1506  and  _1507
REMARK  707  A    between atoms: _1510  and  _1511
REMARK  708  A    between atoms: _1511  and  _1512
REMARK  709  A    between atoms: _1511  and  _1514
REMARK  710  A    between atoms: _1514  and  _1515
REMARK  711  A    between atoms: _1515  and  _1516
REMARK  712  A    between atoms: _1516  and  _1517
REMARK  713  A    between atoms: _1519  and  _1520
REMARK  714  A    between atoms: _1520  and  _1521
REMARK  715  A    between atoms: _1520  and  _1523
REMARK  716  A    between atoms: _1523  and  _1524
REMARK  717  A    between atoms: _1524  and  _1525
REMARK  718  A    between atoms: _1528  and  _1529
REMARK  719  A    between atoms: _1529  and  _1530
REMARK  720  A    between atoms: _1529  and  _1532
REMARK  721  A    between atoms: _1532  and  _1533
REMARK  722  A    between atoms: _1536  and  _1537
REMARK  723  A    between atoms: _1537  and  _1538
REMARK  724  A    between atoms: _1537  and  _1540
REMARK  725  A    between atoms: _1543  and  _1544
REMARK  726  A    between atoms: _1544  and  _1545
REMARK  727  A    between atoms: _1544  and  _1547
REMARK  728  A    between atoms: _1547  and  _1548
REMARK  729  A    between atoms: _1548  and  _1549
REMARK  730  A    between atoms: _1549  and  _1550
REMARK  731  A    between atoms: _1552  and  _1553
REMARK  732  A    between atoms: _1553  and  _1554
REMARK  733  A    between atoms: _1553  and  _1556
REMARK  734  A    between atoms: _1556  and  _1557
REMARK  735  A    between atoms: _1557  and  _1558
REMARK  736  A    between atoms: _1558  and  _1559
REMARK  737  A    between atoms: _1561  and  _1562
REMARK  738  A    between atoms: _1562  and  _1563
REMARK  739  A    between atoms: _1562  and  _1565
REMARK  740  A    between atoms: _1565  and  _1566
REMARK  741  A    between atoms: _1571  and  _1572
REMARK  742  A    between atoms: _1572  and  _1573
REMARK  743  A    between atoms: _1572  and  _1575
REMARK  744  A    between atoms: _1577  and  _1578
REMARK  745  A    between atoms: _1578  and  _1579
REMARK  746  A    between atoms: _1578  and  _1581
REMARK  747  A    between atoms: _1581  and  _1582
REMARK  748  A    between atoms: _1582  and  _1583
REMARK  749  A    between atoms: _1586  and  _1587
REMARK  750  A    between atoms: _1587  and  _1588
REMARK  751  A    between atoms: _1587  and  _1590
REMARK  752  A    between atoms: _1590  and  _1591
REMARK  753  A    between atoms: _1597  and  _1598
REMARK  754  A    between atoms: _1598  and  _1599
REMARK  755  A    between atoms: _1598  and  _1601
REMARK  756  A    between atoms: _1601  and  _1602
REMARK  757  A    between atoms: _1605  and  _1606
REMARK  758  A    between atoms: _1606  and  _1607
REMARK  759  A    between atoms: _1609  and  _1610
REMARK  760  A    between atoms: _1610  and  _1611
REMARK  761  A    between atoms: _1610  and  _1613
REMARK  762  A    between atoms: _1613  and  _1614
REMARK  763  A    between atoms: _1622  and  _1623
REMARK  764  A    between atoms: _1628  and  _1629
REMARK  765  A    between atoms: _1629  and  _1630
REMARK  766  A    between atoms: _1629  and  _1632
REMARK  767  A    between atoms: _1632  and  _1633
REMARK  768  A    between atoms: _1636  and  _1637
REMARK  769  A    between atoms: _1637  and  _1638
REMARK  770  A    between atoms: _1637  and  _1640
REMARK  771  A    between atoms: _1643  and  _1644
REMARK  772  A    between atoms: _1644  and  _1645
REMARK  773  A    between atoms: _1644  and  _1647
REMARK  774  A    between atoms: _1647  and  _1648
REMARK  775  A    between atoms: _1651  and  _1652
REMARK  776  A    between atoms: _1652  and  _1653
REMARK  777  A    between atoms: _1652  and  _1655
REMARK  778  A    between atoms: _1655  and  _1656
REMARK  779  A    between atoms: _1662  and  _1663
REMARK  780  A    between atoms: _1663  and  _1664
REMARK  781  A    between atoms: _1663  and  _1666
REMARK  782  A    between atoms: _1669  and  _1670
REMARK  783  A    between atoms: _1670  and  _1671
REMARK  784  A    between atoms: _1670  and  _1673
REMARK  785  A    between atoms: _1673  and  _1674
REMARK  786  A    between atoms: _1674  and  _1675
REMARK                            x       y       z     vdW  Elec       q    Type
REMARK                         _______ _______ _______ _____ _____    ______ ____
ROOT
ATOM      1  C   UNL     1       8.879  16.655   3.462  0.00  0.00    +0.000 C 
ATOM      2  C   UNL     1       8.856  16.020   4.818  0.00  0.00    +0.000 C 
ENDROOT
TORSDOF 0
REMARK  Name = /Users/mlugowska/PhD/ML_residence_time_prediction/protein_files/5J64_protein.pdb
REMARK  786 active torsions:
REMARK  status: ('A' for Active; 'I' for Inactive)
REMARK    1  A    between atoms: _2  and  _3
REMARK    2  A    between atoms: _2  and  _5
REMARK    3  A    between atoms: _5  and  _6
REMARK    4  A    between atoms: _6  and  _7
REMARK    5  A    between atoms: _10  and  _11
REMARK    6  A    between atoms: _11  and  _12
REMARK    7  A    between atoms: _11  and  _14
REMARK    8  A    between atoms: _17  and  _18
REMARK    9  A    between atoms: _18  and  _19
REMARK   10  A    between atoms: _18  and  _21
REMARK   11  A    between atoms: _21  and  _22
REMARK   12  A    between atoms: _22  and  _23
REMARK   13  A    between atoms: _26  and  _27
REMARK   14  A    between atoms: _27  and  _28
REMARK   15  A    between atoms: _27  and  _30
REMARK   16  A    between atoms: _33  and  _34
REMARK   17  A    between atoms: _34  and  _35
REMARK   18  A    between atoms: _34  and  _37
REMARK   19  A    between atoms: _37  and  _38
REMARK   20  A    between atoms: _44  and  _45
REMARK   21  A    between atoms: _45  and  _46
REMARK   22  A    between atoms: _49  and  _50
REMARK   23  A    between atoms: _50  and  _51
REMARK   24  A    between atoms: _50  and  _53
REMARK   25  A    between atoms: _53  and  _54
REMARK   26  A    between atoms: _60  and  _61
REMARK   27  A    between atoms: _61  and  _62
REMARK   28  A    between atoms: _61  and  _64
REMARK   29  A    between atoms: _64  and  _65
REMARK   30  A    between atoms: _65  and  _66
REMARK   31  A    between atoms: _69  and  _70
REMARK   32  A    between atoms: _70  and  _71
REMARK   33  A    between atoms: _74  and  _75
REMARK   34  A    between atoms: _75  and  _76
REMARK   35  A    between atoms: _75  and  _78
REMARK   36  A    between atoms: _78  and  _79
REMARK   37  A    between atoms: _79  and  _80
REMARK   38  A    between atoms: _83  and  _84
REMARK   39  A    between atoms: _84  and  _85
REMARK   40  A    between atoms: _84  and  _87
REMARK   41  A    between atoms: _87  and  _88
REMARK   42  A    between atoms: _91  and  _92
REMARK   43  A    between atoms: _92  and  _93
REMARK   44  A    between atoms: _96  and  _97
REMARK   45  A    between atoms: _97  and  _98
REMARK   46  A    between atoms: _97  and  _100
REMARK   47  A    between atoms: _100  and  _101
REMARK   48  A    between atoms: _101  and  _102
REMARK   49  A    between atoms: _105  and  _106
REMARK   50  A    between atoms: _106  and  _107
REMARK   51  A    between atoms: _106  and  _109
REMARK   52  A    between atoms: _109  and  _110
REMARK   53  A    between atoms: _113  and  _114
REMARK   54  A    between atoms: _114  and  _115
REMARK   55  A    between atoms: _114  and  _117
REMARK   56  A    between atoms: _117  and  _118
REMARK   57  A    between atoms: _118  and  _119
REMARK   58  A    between atoms: _121  and  _122
REMARK   59  A    between atoms: _122  and  _123
REMARK   60  A    between atoms: _122  and  _125
REMARK   61  A    between atoms: _127  and  _128
REMARK   62  A    between atoms: _128  and  _129
REMARK   63  A    between atoms: _128  and  _131
REMARK   64  A    between atoms: _131  and  _132
REMARK   65  A    between atoms: _135  and  _136
REMARK   66  A    between atoms: _136  and  _137
REMARK   67  A    between atoms: _136  and  _139
REMARK   68  A    between atoms: _139  and  _140
REMARK   69  A    between atoms: _143  and  _144
REMARK   70  A    between atoms: _144  and  _145
REMARK   71  A    between atoms: _144  and  _147
REMARK   72  A    between atoms: _147  and  _148
REMARK   73  A    between atoms: _151  and  _152
REMARK   74  A    between atoms: _152  and  _153
REMARK   75  A    between atoms: _152  and  _155
REMARK   76  A    between atoms: _155  and  _156
REMARK   77  A    between atoms: _159  and  _160
REMARK   78  A    between atoms: _160  and  _161
REMARK   79  A    between atoms: _160  and  _163
REMARK   80  A    between atoms: _166  and  _167
REMARK   81  A    between atoms: _167  and  _170
REMARK   82  A    between atoms: _170  and  _171
REMARK   83  A    between atoms: _181  and  _183
REMARK   84  A    between atoms: _183  and  _184
REMARK   85  A    between atoms: _189  and  _194
REMARK   86  A    between atoms: _192  and  _195
REMARK   87  A    between atoms: _193  and  _194
REMARK   88  A    between atoms: _195  and  _196
REMARK   89  A    between atoms: _201  and  _202
REMARK   90  A    between atoms: _202  and  _203
REMARK   91  A    between atoms: _202  and  _205
REMARK   92  A    between atoms: _207  and  _208
REMARK   93  A    between atoms: _208  and  _209
REMARK   94  A    between atoms: _208  and  _211
REMARK   95  A    between atoms: _211  and  _212
REMARK   96  A    between atoms: _215  and  _216
REMARK   97  A    between atoms: _216  and  _217
REMARK   98  A    between atoms: _216  and  _219
REMARK   99  A    between atoms: _219  and  _220
REMARK  100  A    between atoms: _220  and  _221
REMARK  101  A    between atoms: _221  and  _222
REMARK  102  A    between atoms: _224  and  _225
REMARK  103  A    between atoms: _225  and  _226
REMARK  104  A    between atoms: _225  and  _228
REMARK  105  A    between atoms: _228  and  _229
REMARK  106  A    between atoms: _229  and  _230
REMARK  107  A    between atoms: _233  and  _234
REMARK  108  A    between atoms: _234  and  _235
REMARK  109  A    between atoms: _234  and  _237
REMARK  110  A    between atoms: _237  and  _238
REMARK  111  A    between atoms: _241  and  _242
REMARK  112  A    between atoms: _242  and  _243
REMARK  113  A    between atoms: _242  and  _245
REMARK  114  A    between atoms: _245  and  _246
REMARK  115  A    between atoms: _252  and  _253
REMARK  116  A    between atoms: _253  and  _254
REMARK  117  A    between atoms: _253  and  _256
REMARK  118  A    between atoms: _256  and  _257
REMARK  119  A    between atoms: _260  and  _261
REMARK  120  A    between atoms: _261  and  _262
REMARK  121  A    between atoms: _261  and  _264
REMARK  122  A    between atoms: _264  and  _265
REMARK  123  A    between atoms: _265  and  _266
REMARK  124  A    between atoms: _266  and  _267
REMARK  125  A    between atoms: _271  and  _272
REMARK  126  A    between atoms: _272  and  _273
REMARK  127  A    between atoms: _272  and  _275
REMARK  128  A    between atoms: _275  and  _276
REMARK  129  A    between atoms: _276  and  _277
REMARK  130  A    between atoms: _280  and  _281
REMARK  131  A    between atoms: _281  and  _282
REMARK  132  A    between atoms: _281  and  _284
REMARK  133  A    between atoms: _284  and  _285
REMARK  134  A    between atoms: _288  and  _289
REMARK  135  A    between atoms: _289  and  _292
REMARK  136  A    between atoms: _292  and  _293
REMARK  137  A    between atoms: _309  and  _310
REMARK  138  A    between atoms: _309  and  _312
REMARK  139  A    between atoms: _312  and  _313
REMARK  140  A    between atoms: _316  and  _317
REMARK  141  A    between atoms: _317  and  _318
REMARK  142  A    between atoms: _317  and  _320
REMARK  143  A    between atoms: _322  and  _323
REMARK  144  A    between atoms: _323  and  _324
REMARK  145  A    between atoms: _323  and  _326
REMARK  146  A    between atoms: _328  and  _329
REMARK  147  A    between atoms: _329  and  _330
REMARK  148  A    between atoms: _329  and  _332
REMARK  149  A    between atoms: _332  and  _333
REMARK  150  A    between atoms: _336  and  _337
REMARK  151  A    between atoms: _337  and  _338
REMARK  152  A    between atoms: _341  and  _342
REMARK  153  A    between atoms: _342  and  _343
REMARK  154  A    between atoms: _342  and  _345
REMARK  155  A    between atoms: _345  and  _346
REMARK  156  A    between atoms: _349  and  _350
REMARK  157  A    between atoms: _350  and  _351
REMARK  158  A    between atoms: _350  and  _353
REMARK  159  A    between atoms: _353  and  _354
REMARK  160  A    between atoms: _357  and  _358
REMARK  161  A    between atoms: _358  and  _359
REMARK  162  A    between atoms: _358  and  _361
REMARK  163  A    between atoms: _361  and  _362
REMARK  164  A    between atoms: _362  and  _363
REMARK  165  A    between atoms: _363  and  _364
REMARK  166  A    between atoms: _366  and  _367
REMARK  167  A    between atoms: _367  and  _368
REMARK  168  A    between atoms: _367  and  _370
REMARK  169  A    between atoms: _370  and  _371
REMARK  170  A    between atoms: _374  and  _375
REMARK  171  A    between atoms: _375  and  _376
REMARK  172  A    between atoms: _375  and  _378
REMARK  173  A    between atoms: _378  and  _379
REMARK  174  A    between atoms: _379  and  _380
REMARK  175  A    between atoms: _380  and  _381
REMARK  176  A    between atoms: _385  and  _386
REMARK  177  A    between atoms: _386  and  _387
REMARK  178  A    between atoms: _386  and  _389
REMARK  179  A    between atoms: _389  and  _390
REMARK  180  A    between atoms: _397  and  _398
REMARK  181  A    between atoms: _398  and  _399
REMARK  182  A    between atoms: _398  and  _401
REMARK  183  A    between atoms: _401  and  _402
REMARK  184  A    between atoms: _402  and  _403
REMARK  185  A    between atoms: _406  and  _407
REMARK  186  A    between atoms: _407  and  _408
REMARK  187  A    between atoms: _407  and  _410
REMARK  188  A    between atoms: _412  and  _413
REMARK  189  A    between atoms: _413  and  _414
REMARK  190  A    between atoms: _413  and  _416
REMARK  191  A    between atoms: _416  and  _417
REMARK  192  A    between atoms: _420  and  _421
REMARK  193  A    between atoms: _421  and  _422
REMARK  194  A    between atoms: _421  and  _424
REMARK  195  A    between atoms: _427  and  _428
REMARK  196  A    between atoms: _428  and  _429
REMARK  197  A    between atoms: _428  and  _431
REMARK  198  A    between atoms: _431  and  _432
REMARK  199  A    between atoms: _436  and  _437
REMARK  200  A    between atoms: _442  and  _443
REMARK  201  A    between atoms: _443  and  _444
REMARK  202  A    between atoms: _443  and  _446
REMARK  203  A    between atoms: _448  and  _449
REMARK  204  A    between atoms: _449  and  _450
REMARK  205  A    between atoms: _449  and  _452
REMARK  206  A    between atoms: _452  and  _453
REMARK  207  A    between atoms: _453  and  _454
REMARK  208  A    between atoms: _454  and  _455
REMARK  209  A    between atoms: _457  and  _458
REMARK  210  A    between atoms: _458  and  _459
REMARK  211  A    between atoms: _458  and  _461
REMARK  212  A    between atoms: _461  and  _462
REMARK  213  A    between atoms: _465  and  _466
REMARK  214  A    between atoms: _466  and  _467
REMARK  215  A    between atoms: _466  and  _469
REMARK  216  A    between atoms: _469  and  _470
REMARK  217  A    between atoms: _473  and  _474
REMARK  218  A    between atoms: _474  and  _475
REMARK  219  A    between atoms: _474  and  _477
REMARK  220  A    between atoms: _479  and  _480
REMARK  221  A    between atoms: _480  and  _481
REMARK  222  A    between atoms: _483  and  _484
REMARK  223  A    between atoms: _484  and  _485
REMARK  224  A    between atoms: _484  and  _487
REMARK  225  A    between atoms: _487  and  _488
REMARK  226  A    between atoms: _488  and  _489
REMARK  227  A    between atoms: _489  and  _490
REMARK  228  A    between atoms: _492  and  _493
REMARK  229  A    between atoms: _493  and  _494
REMARK  230  A    between atoms: _493  and  _496
REMARK  231  A    between atoms: _496  and  _497
REMARK  232  A    between atoms: _497  and  _498
REMARK  233  A    between atoms: _501  and  _502
REMARK  234  A    between atoms: _502  and  _503
REMARK  235  A    between atoms: _502  and  _505
REMARK  236  A    between atoms: _505  and  _506
REMARK  237  A    between atoms: _509  and  _510
REMARK  238  A    between atoms: _510  and  _511
REMARK  239  A    between atoms: _510  and  _513
REMARK  240  A    between atoms: _513  and  _514
REMARK  241  A    between atoms: _519  and  _520
REMARK  242  A    between atoms: _520  and  _521
REMARK  243  A    between atoms: _520  and  _523
REMARK  244  A    between atoms: _523  and  _524
REMARK  245  A    between atoms: _527  and  _528
REMARK  246  A    between atoms: _528  and  _529
REMARK  247  A    between atoms: _528  and  _531
REMARK  248  A    between atoms: _531  and  _532
REMARK  249  A    between atoms: _535  and  _536
REMARK  250  A    between atoms: _536  and  _537
REMARK  251  A    between atoms: _536  and  _539
REMARK  252  A    between atoms: _539  and  _540
REMARK  253  A    between atoms: _543  and  _544
REMARK  254  A    between atoms: _544  and  _545
REMARK  255  A    between atoms: _544  and  _547
REMARK  256  A    between atoms: _547  and  _548
REMARK  257  A    between atoms: _552  and  _553
REMARK  258  A    between atoms: _558  and  _559
REMARK  259  A    between atoms: _559  and  _560
REMARK  260  A    between atoms: _559  and  _562
REMARK  261  A    between atoms: _562  and  _563
REMARK  262  A    between atoms: _566  and  _567
REMARK  263  A    between atoms: _567  and  _568
REMARK  264  A    between atoms: _567  and  _570
REMARK  265  A    between atoms: _570  and  _571
REMARK  266  A    between atoms: _571  and  _572
REMARK  267  A    between atoms: _572  and  _573
REMARK  268  A    between atoms: _575  and  _576
REMARK  269  A    between atoms: _576  and  _577
REMARK  270  A    between atoms: _576  and  _579
REMARK  271  A    between atoms: _579  and  _580
REMARK  272  A    between atoms: _580  and  _581
REMARK  273  A    between atoms: _584  and  _585
REMARK  274  A    between atoms: _585  and  _586
REMARK  275  A    between atoms: _585  and  _588
REMARK  276  A    between atoms: _588  and  _589
REMARK  277  A    between atoms: _592  and  _593
REMARK  278  A    between atoms: _593  and  _594
REMARK  279  A    between atoms: _593  and  _596
REMARK  280  A    between atoms: _596  and  _597
REMARK  281  A    between atoms: _597  and  _598
REMARK  282  A    between atoms: _598  and  _599
REMARK  283  A    between atoms: _603  and  _604
REMARK  284  A    between atoms: _604  and  _605
REMARK  285  A    between atoms: _604  and  _607
REMARK  286  A    between atoms: _610  and  _611
REMARK  287  A    between atoms: _611  and  _612
REMARK  288  A    between atoms: _611  and  _614
REMARK  289  A    between atoms: _614  and  _615
REMARK  290  A    between atoms: _618  and  _619
REMARK  291  A    between atoms: _619  and  _620
REMARK  292  A    between atoms: _619  and  _622
REMARK  293  A    between atoms: _625  and  _626
REMARK  294  A    between atoms: _626  and  _627
REMARK  295  A    between atoms: _626  and  _629
REMARK  296  A    between atoms: _629  and  _630
REMARK  297  A    between atoms: _633  and  _634
REMARK  298  A    between atoms: _634  and  _635
REMARK  299  A    between atoms: _634  and  _637
REMARK  300  A    between atoms: _640  and  _641
REMARK  301  A    between atoms: _641  and  _642
REMARK  302  A    between atoms: _641  and  _644
REMARK  303  A    between atoms: _644  and  _645
REMARK  304  A    between atoms: _648  and  _649
REMARK  305  A    between atoms: _649  and  _650
REMARK  306  A    between atoms: _649  and  _652
REMARK  307  A    between atoms: _655  and  _656
REMARK  308  A    between atoms: _656  and  _657
REMARK  309  A    between atoms: _659  and  _660
REMARK  310  A    between atoms: _660  and  _661
REMARK  311  A    between atoms: _660  and  _663
REMARK  312  A    between atoms: _663  and  _664
REMARK  313  A    between atoms: _667  and  _668
REMARK  314  A    between atoms: _668  and  _669
REMARK  315  A    between atoms: _671  and  _672
REMARK  316  A    between atoms: _672  and  _673
REMARK  317  A    between atoms: _672  and  _675
REMARK  318  A    between atoms: _675  and  _676
REMARK  319  A    between atoms: _676  and  _677
REMARK  320  A    between atoms: _679  and  _680
REMARK  321  A    between atoms: _680  and  _681
REMARK  322  A    between atoms: _680  and  _683
REMARK  323  A    between atoms: _686  and  _687
REMARK  324  A    between atoms: _687  and  _688
REMARK  325  A    between atoms: _687  and  _690
REMARK  326  A    between atoms: _690  and  _691
REMARK  327  A    between atoms: _691  and  _692
REMARK  328  A    between atoms: _692  and  _693
REMARK  329  A    between atoms: _695  and  _696
REMARK  330  A    between atoms: _696  and  _697
REMARK  331  A    between atoms: _700  and  _701
REMARK  332  A    between atoms: _701  and  _702
REMARK  333  A    between atoms: _701  and  _704
REMARK  334  A    between atoms: _704  and  _705
REMARK  335  A    between atoms: _708  and  _709
REMARK  336  A    between atoms: _709  and  _710
REMARK  337  A    between atoms: _709  and  _712
REMARK  338  A    between atoms: _712  and  _713
REMARK  339  A    between atoms: _716  and  _717
REMARK  340  A    between atoms: _717  and  _720
REMARK  341  A    between atoms: _720  and  _721
REMARK  342  A    between atoms: _733  and  _734
REMARK  343  A    between atoms: _733  and  _735
REMARK  344  A    between atoms: _741  and  _744
REMARK  345  A    between atoms: _744  and  _745
REMARK  346  A    between atoms: _758  and  _759
REMARK  347  A    between atoms: _758  and  _761
REMARK  348  A    between atoms: _759  and  _760
REMARK  349  A    between atoms: _765  and  _766
REMARK  350  A    between atoms: _768  and  _769
REMARK  351  A    between atoms: _769  and  _770
REMARK  352  A    between atoms: _769  and  _772
REMARK  353  A    between atoms: _775  and  _776
REMARK  354  A    between atoms: _776  and  _777
REMARK  355  A    between atoms: _776  and  _779
REMARK  356  A    between atoms: _779  and  _780
REMARK  357  A    between atoms: _783  and  _784
REMARK  358  A    between atoms: _784  and  _785
REMARK  359  A    between atoms: _788  and  _789
REMARK  360  A    between atoms: _789  and  _790
REMARK  361  A    between atoms: _789  and  _792
REMARK  362  A    between atoms: _792  and  _793
REMARK  363  A    between atoms: _793  and  _794
REMARK  364  A    between atoms: _794  and  _795
REMARK  365  A    between atoms: _797  and  _798
REMARK  366  A    between atoms: _798  and  _799
REMARK  367  A    between atoms: _798  and  _801
REMARK  368  A    between atoms: _803  and  _804
REMARK  369  A    between atoms: _804  and  _805
REMARK  370  A    between atoms: _807  and  _808
REMARK  371  A    between atoms: _808  and  _809
REMARK  372  A    between atoms: _808  and  _811
REMARK  373  A    between atoms: _814  and  _815
REMARK  374  A    between atoms: _815  and  _816
REMARK  375  A    between atoms: _815  and  _818
REMARK  376  A    between atoms: _818  and  _819
REMARK  377  A    between atoms: _819  and  _820
REMARK  378  A    between atoms: _820  and  _821
REMARK  379  A    between atoms: _823  and  _824
REMARK  380  A    between atoms: _824  and  _825
REMARK  381  A    between atoms: _828  and  _829
REMARK  382  A    between atoms: _829  and  _830
REMARK  383  A    between atoms: _829  and  _832
REMARK  384  A    between atoms: _832  and  _833
REMARK  385  A    between atoms: _839  and  _840
REMARK  386  A    between atoms: _840  and  _841
REMARK  387  A    between atoms: _840  and  _843
REMARK  388  A    between atoms: _843  and  _844
REMARK  389  A    between atoms: _844  and  _845
REMARK  390  A    between atoms: _847  and  _848
REMARK  391  A    between atoms: _848  and  _849
REMARK  392  A    between atoms: _848  and  _851
REMARK  393  A    between atoms: _851  and  _852
REMARK  394  A    between atoms: _852  and  _853
REMARK  395  A    between atoms: _856  and  _857
REMARK  396  A    between atoms: _857  and  _858
REMARK  397  A    between atoms: _861  and  _862
REMARK  398  A    between atoms: _862  and  _863
REMARK  399  A    between atoms: _862  and  _865
REMARK  400  A    between atoms: _865  and  _866
REMARK  401  A    between atoms: _869  and  _870
REMARK  402  A    between atoms: _870  and  _871
REMARK  403  A    between atoms: _870  and  _873
REMARK  404  A    between atoms: _873  and  _874
REMARK  405  A    between atoms: _874  and  _875
REMARK  406  A    between atoms: _878  and  _879
REMARK  407  A    between atoms: _879  and  _880
REMARK  408  A    between atoms: _883  and  _884
REMARK  409  A    between atoms: _884  and  _885
REMARK  410  A    between atoms: _887  and  _888
REMARK  411  A    between atoms: _888  and  _889
REMARK  412  A    between atoms: _892  and  _893
REMARK  413  A    between atoms: _893  and  _894
REMARK  414  A    between atoms: _893  and  _896
REMARK  415  A    between atoms: _896  and  _897
REMARK  416  A    between atoms: _900  and  _901
REMARK  417  A    between atoms: _901  and  _902
REMARK  418  A    between atoms: _901  and  _904
REMARK  419  A    between atoms: _904  and  _905
REMARK  420  A    between atoms: _908  and  _909
REMARK  421  A    between atoms: _909  and  _910
REMARK  422  A    between atoms: _909  and  _912
REMARK  423  A    between atoms: _914  and  _915
REMARK  424  A    between atoms: _915  and  _916
REMARK  425  A    between atoms: _915  and  _918
REMARK  426  A    between atoms: _918  and  _919
REMARK  427  A    between atoms: _919  and  _920
REMARK  428  A    between atoms: _922  and  _923
REMARK  429  A    between atoms: _923  and  _924
REMARK  430  A    between atoms: _923  and  _926
REMARK  431  A    between atoms: _926  and  _927
REMARK  432  A    between atoms: _930  and  _931
REMARK  433  A    between atoms: _931  and  _932
REMARK  434  A    between atoms: _934  and  _935
REMARK  435  A    between atoms: _935  and  _936
REMARK  436  A    between atoms: _935  and  _938
REMARK  437  A    between atoms: _938  and  _939
REMARK  438  A    between atoms: _939  and  _940
REMARK  439  A    between atoms: _943  and  _944
REMARK  440  A    between atoms: _944  and  _945
REMARK  441  A    between atoms: _944  and  _947
REMARK  442  A    between atoms: _947  and  _948
REMARK  443  A    between atoms: _954  and  _955
REMARK  444  A    between atoms: _955  and  _956
REMARK  445  A    between atoms: _958  and  _959
REMARK  446  A    between atoms: _959  and  _960
REMARK  447  A    between atoms: _959  and  _962
REMARK  448  A    between atoms: _965  and  _966
REMARK  449  A    between atoms: _966  and  _967
REMARK  450  A    between atoms: _969  and  _970
REMARK  451  A    between atoms: _970  and  _971
REMARK  452  A    between atoms: _970  and  _973
REMARK  453  A    between atoms: _973  and  _974
REMARK  454  A    between atoms: _980  and  _981
REMARK  455  A    between atoms: _981  and  _982
REMARK  456  A    between atoms: _981  and  _984
REMARK  457  A    between atoms: _984  and  _985
REMARK  458  A    between atoms: _992  and  _993
REMARK  459  A    between atoms: _993  and  _994
REMARK  460  A    between atoms: _993  and  _996
REMARK  461  A    between atoms: _998  and  _999
REMARK  462  A    between atoms: _999  and  _1000
REMARK  463  A    between atoms: _1003  and  _1004
REMARK  464  A    between atoms: _1004  and  _1005
REMARK  465  A    between atoms: _1004  and  _1007
REMARK  466  A    between atoms: _1007  and  _1008
REMARK  467  A    between atoms: _1015  and  _1016
REMARK  468  A    between atoms: _1016  and  _1017
REMARK  469  A    between atoms: _1016  and  _1019
REMARK  470  A    between atoms: _1019  and  _1020
REMARK  471  A    between atoms: _1023  and  _1024
REMARK  472  A    between atoms: _1024  and  _1025
REMARK  473  A    between atoms: _1024  and  _1027
REMARK  474  A    between atoms: _1030  and  _1031
REMARK  475  A    between atoms: _1031  and  _1032
REMARK  476  A    between atoms: _1035  and  _1036
REMARK  477  A    between atoms: _1036  and  _1037
REMARK  478  A    between atoms: _1036  and  _1039
REMARK  479  A    between atoms: _1039  and  _1040
REMARK  480  A    between atoms: _1040  and  _1041
REMARK  481  A    between atoms: _1044  and  _1045
REMARK  482  A    between atoms: _1045  and  _1046
REMARK  483  A    between atoms: _1045  and  _1048
REMARK  484  A    between atoms: _1048  and  _1049
REMARK  485  A    between atoms: _1049  and  _1050
REMARK  486  A    between atoms: _1050  and  _1051
REMARK  487  A    between atoms: _1053  and  _1054
REMARK  488  A    between atoms: _1054  and  _1055
REMARK  489  A    between atoms: _1054  and  _1057
REMARK  490  A    between atoms: _1060  and  _1061
REMARK  491  A    between atoms: _1061  and  _1062
REMARK  492  A    between atoms: _1061  and  _1064
REMARK  493  A    between atoms: _1067  and  _1068
REMARK  494  A    between atoms: _1068  and  _1069
REMARK  495  A    between atoms: _1068  and  _1071
REMARK  496  A    between atoms: _1074  and  _1075
REMARK  497  A    between atoms: _1075  and  _1076
REMARK  498  A    between atoms: _1075  and  _1078
REMARK  499  A    between atoms: _1078  and  _1079
REMARK  500  A    between atoms: _1082  and  _1083
REMARK  501  A    between atoms: _1083  and  _1084
REMARK  502  A    between atoms: _1083  and  _1086
REMARK  503  A    between atoms: _1089  and  _1090
REMARK  504  A    between atoms: _1090  and  _1091
REMARK  505  A    between atoms: _1090  and  _1093
REMARK  506  A    between atoms: _1093  and  _1094
REMARK  507  A    between atoms: _1094  and  _1095
REMARK  508  A    between atoms: _1095  and  _1096
REMARK  509  A    between atoms: _1098  and  _1099
REMARK  510  A    between atoms: _1099  and  _1100
REMARK  511  A    between atoms: _1099  and  _1102
REMARK  512  A    between atoms: _1102  and  _1103
REMARK  513  A    between atoms: _1108  and  _1109
REMARK  514  A    between atoms: _1109  and  _1110
REMARK  515  A    between atoms: _1109  and  _1112
REMARK  516  A    between atoms: _1112  and  _1113
REMARK  517  A    between atoms: _1116  and  _1117
REMARK  518  A    between atoms: _1117  and  _1118
REMARK  519  A    between atoms: _1117  and  _1120
REMARK  520  A    between atoms: _1120  and  _1121
REMARK  521  A    between atoms: _1124  and  _1125
REMARK  522  A    between atoms: _1125  and  _1126
REMARK  523  A    between atoms: _1125  and  _1128
REMARK  524  A    between atoms: _1128  and  _1129
REMARK  525  A    between atoms: _1132  and  _1133
REMARK  526  A    between atoms: _1133  and  _1134
REMARK  527  A    between atoms: _1133  and  _1136
REMARK  528  A    between atoms: _1136  and  _1137
REMARK  529  A    between atoms: _1137  and  _1138
REMARK  530  A    between atoms: _1141  and  _1142
REMARK  531  A    between atoms: _1142  and  _1143
REMARK  532  A    between atoms: _1142  and  _1145
REMARK  533  A    between atoms: _1145  and  _1146
REMARK  534  A    between atoms: _1146  and  _1147
REMARK  535  A    between atoms: _1150  and  _1151
REMARK  536  A    between atoms: _1151  and  _1152
REMARK  537  A    between atoms: _1151  and  _1154
REMARK  538  A    between atoms: _1154  and  _1155
REMARK  539  A    between atoms: _1162  and  _1163
REMARK  540  A    between atoms: _1163  and  _1164
REMARK  541  A    between atoms: _1167  and  _1168
REMARK  542  A    between atoms: _1168  and  _1169
REMARK  543  A    between atoms: _1168  and  _1171
REMARK  544  A    between atoms: _1171  and  _1172
REMARK  545  A    between atoms: _1181  and  _1182
REMARK  546  A    between atoms: _1182  and  _1183
REMARK  547  A    between atoms: _1182  and  _1185
REMARK  548  A    between atoms: _1185  and  _1186
REMARK  549  A    between atoms: _1186  and  _1187
REMARK  550  A    between atoms: _1190  and  _1191
REMARK  551  A    between atoms: _1191  and  _1192
REMARK  552  A    between atoms: _1191  and  _1194
REMARK  553  A    between atoms: _1196  and  _1197
REMARK  554  A    between atoms: _1197  and  _1198
REMARK  555  A    between atoms: _1197  and  _1200
REMARK  556  A    between atoms: _1202  and  _1203
REMARK  557  A    between atoms: _1203  and  _1204
REMARK  558  A    between atoms: _1207  and  _1208
REMARK  559  A    between atoms: _1208  and  _1209
REMARK  560  A    between atoms: _1211  and  _1212
REMARK  561  A    between atoms: _1212  and  _1213
REMARK  562  A    between atoms: _1215  and  _1216
REMARK  563  A    between atoms: _1216  and  _1217
REMARK  564  A    between atoms: _1216  and  _1219
REMARK  565  A    between atoms: _1221  and  _1222
REMARK  566  A    between atoms: _1222  and  _1223
REMARK  567  A    between atoms: _1222  and  _1225
REMARK  568  A    between atoms: _1225  and  _1226
REMARK  569  A    between atoms: _1232  and  _1233
REMARK  570  A    between atoms: _1233  and  _1234
REMARK  571  A    between atoms: _1233  and  _1236
REMARK  572  A    between atoms: _1239  and  _1240
REMARK  573  A    between atoms: _1240  and  _1241
REMARK  574  A    between atoms: _1240  and  _1243
REMARK  575  A    between atoms: _1247  and  _1249
REMARK  576  A    between atoms: _1247  and  _1252
REMARK  577  A    between atoms: _1251  and  _1252
REMARK  578  A    between atoms: _1251  and  _1254
REMARK  579  A    between atoms: _1253  and  _1254
REMARK  580  A    between atoms: _1253  and  _1256
REMARK  581  A    between atoms: _1254  and  _1255
REMARK  582  A    between atoms: _1255  and  _1257
REMARK  583  A    between atoms: _1256  and  _1258
REMARK  584  A    between atoms: _1265  and  _1266
REMARK  585  A    between atoms: _1266  and  _1267
REMARK  586  A    between atoms: _1266  and  _1269
REMARK  587  A    between atoms: _1272  and  _1273
REMARK  588  A    between atoms: _1273  and  _1274
REMARK  589  A    between atoms: _1273  and  _1276
REMARK  590  A    between atoms: _1276  and  _1277
REMARK  591  A    between atoms: _1280  and  _1281
REMARK  592  A    between atoms: _1281  and  _1282
REMARK  593  A    between atoms: _1281  and  _1284
REMARK  594  A    between atoms: _1287  and  _1288
REMARK  595  A    between atoms: _1288  and  _1289
REMARK  596  A    between atoms: _1291  and  _1292
REMARK  597  A    between atoms: _1292  and  _1293
REMARK  598  A    between atoms: _1292  and  _1295
REMARK  599  A    between atoms: _1295  and  _1296
REMARK  600  A    between atoms: _1296  and  _1297
REMARK  601  A    between atoms: _1301  and  _1302
REMARK  602  A    between atoms: _1307  and  _1308
REMARK  603  A    between atoms: _1308  and  _1309
REMARK  604  A    between atoms: _1308  and  _1311
REMARK  605  A    between atoms: _1311  and  _1312
REMARK  606  A    between atoms: _1312  and  _1313
REMARK  607  A    between atoms: _1315  and  _1316
REMARK  608  A    between atoms: _1316  and  _1317
REMARK  609  A    between atoms: _1319  and  _1320
REMARK  610  A    between atoms: _1320  and  _1321
REMARK  611  A    between atoms: _1320  and  _1323
REMARK  612  A    between atoms: _1323  and  _1324
REMARK  613  A    between atoms: _1324  and  _1325
REMARK  614  A    between atoms: _1325  and  _1326
REMARK  615  A    between atoms: _1330  and  _1331
REMARK  616  A    between atoms: _1331  and  _1332
REMARK  617  A    between atoms: _1334  and  _1335
REMARK  618  A    between atoms: _1335  and  _1336
REMARK  619  A    between atoms: _1335  and  _1338
REMARK  620  A    between atoms: _1341  and  _1342
REMARK  621  A    between atoms: _1342  and  _1343
REMARK  622  A    between atoms: _1342  and  _1345
REMARK  623  A    between atoms: _1345  and  _1346
REMARK  624  A    between atoms: _1346  and  _1347
REMARK  625  A    between atoms: _1347  and  _1348
REMARK  626  A    between atoms: _1350  and  _1351
REMARK  627  A    between atoms: _1351  and  _1352
REMARK  628  A    between atoms: _1351  and  _1354
REMARK  629  A    between atoms: _1357  and  _1358
REMARK  630  A    between atoms: _1358  and  _1359
REMARK  631  A    between atoms: _1358  and  _1361
REMARK  632  A    between atoms: _1361  and  _1362
REMARK  633  A    between atoms: _1365  and  _1366
REMARK  634  A    between atoms: _1366  and  _1367
REMARK  635  A    between atoms: _1366  and  _1369
REMARK  636  A    between atoms: _1369  and  _1370
REMARK  637  A    between atoms: _1373  and  _1374
REMARK  638  A    between atoms: _1374  and  _1375
REMARK  639  A    between atoms: _1374  and  _1377
REMARK  640  A    between atoms: _1377  and  _1378
REMARK  641  A    between atoms: _1383  and  _1384
REMARK  642  A    between atoms: _1384  and  _1385
REMARK  643  A    between atoms: _1384  and  _1387
REMARK  644  A    between atoms: _1387  and  _1388
REMARK  645  A    between atoms: _1391  and  _1392
REMARK  646  A    between atoms: _1392  and  _1393
REMARK  647  A    between atoms: _1392  and  _1395
REMARK  648  A    between atoms: _1395  and  _1396
REMARK  649  A    between atoms: _1396  and  _1397
REMARK  650  A    between atoms: _1397  and  _1398
REMARK  651  A    between atoms: _1400  and  _1401
REMARK  652  A    between atoms: _1401  and  _1402
REMARK  653  A    between atoms: _1401  and  _1404
REMARK  654  A    between atoms: _1404  and  _1405
REMARK  655  A    between atoms: _1405  and  _1406
REMARK  656  A    between atoms: _1409  and  _1410
REMARK  657  A    between atoms: _1410  and  _1411
REMARK  658  A    between atoms: _1410  and  _1413
REMARK  659  A    between atoms: _1413  and  _1414
REMARK  660  A    between atoms: _1417  and  _1418
REMARK  661  A    between atoms: _1418  and  _1419
REMARK  662  A    between atoms: _1418  and  _1421
REMARK  663  A    between atoms: _1421  and  _1422
REMARK  664  A    between atoms: _1422  and  _1423
REMARK  665  A    between atoms: _1426  and  _1427
REMARK  666  A    between atoms: _1427  and  _1428
REMARK  667  A    between atoms: _1427  and  _1430
REMARK  668  A    between atoms: _1433  and  _1434
REMARK  669  A    between atoms: _1434  and  _1435
REMARK  670  A    between atoms: _1434  and  _1437
REMARK  671  A    between atoms: _1437  and  _1438
REMARK  672  A    between atoms: _1438  and  _1439
REMARK  673  A    between atoms: _1442  and  _1443
REMARK  674  A    between atoms: _1443  and  _1444
REMARK  675  A    between atoms: _1443  and  _1446
REMARK  676  A    between atoms: _1446  and  _1447
REMARK  677  A    between atoms: _1454  and  _1455
REMARK  678  A    between atoms: _1455  and  _1456
REMARK  679  A    between atoms: _1455  and  _1458
REMARK  680  A    between atoms: _1458  and  _1459
REMARK  681  A    between atoms: _1462  and  _1463
REMARK  682  A    between atoms: _1463  and  _1464
REMARK  683  A    between atoms: _1463  and  _1466
REMARK  684  A    between atoms: _1466  and  _1467
REMARK  685  A    between atoms: _1467  and  _1468
REMARK  686  A    between atoms: _1471  and  _1472
REMARK  687  A    between atoms: _1472  and  _1473
REMARK  688  A    between atoms: _1472  and  _1475
REMARK  689  A    between atoms: _1475  and  _1476
REMARK  690  A    between atoms: _1476  and  _1477
REMARK  691  A    between atoms: _1480  and  _1481
REMARK  692  A    between atoms: _1481  and  _1482
REMARK  693  A    between atoms: _1481  and  _1484
REMARK  694  A    between atoms: _1484  and  _1485
REMARK  695  A    between atoms: _1485  and  _1486
REMARK  696  A    between atoms: _1486  and  _1487
REMARK  697  A    between atoms: _1491  and  _1492
REMARK  698  A    between atoms: _1492  and  _1493
REMARK  699  A    between atoms: _1492  and  _1495
REMARK  700  A    between atoms: _1495  and  _1496
REMARK  701  A    between atoms: _1496  and  _1497
REMARK  702  A    between atoms: _1497  and  _1498
REMARK  703  A    between atoms: _1502  and  _1503
REMARK  704  A    between atoms: _1503  and  _1504
REMARK  705  A    between atoms: _1503  and  _1506
REMARK  706  A    between atoms: _1506  and  _1507
REMARK  707  A    between atoms: _1510  and  _1511
REMARK  708  A    between atoms: _1511  and  _1512
REMARK  709  A    between atoms: _1511  and  _1514
REMARK  710  A    between atoms: _1514  and  _1515
REMARK  711  A    between atoms: _1515  and  _1516
REMARK  712  A    between atoms: _1516  and  _1517
REMARK  713  A    between atoms: _1519  and  _1520
REMARK  714  A    between atoms: _1520  and  _1521
REMARK  715  A    between atoms: _1520  and  _1523
REMARK  716  A    between atoms: _1523  and  _1524
REMARK  717  A    between atoms: _1524  and  _1525
REMARK  718  A    between atoms: _1528  and  _1529
REMARK  719  A    between atoms: _1529  and  _1530
REMARK  720  A    between atoms: _1529  and  _1532
REMARK  721  A    between atoms: _1532  and  _1533
REMARK  722  A    between atoms: _1536  and  _1537
REMARK  723  A    between atoms: _1537  and  _1538
REMARK  724  A    between atoms: _1537  and  _1540
REMARK  725  A    between atoms: _1543  and  _1544
REMARK  726  A    between atoms: _1544  and  _1545
REMARK  727  A    between atoms: _1544  and  _1547
REMARK  728  A    between atoms: _1547  and  _1548
REMARK  729  A    between atoms: _1548  and  _1549
REMARK  730  A    between atoms: _1549  and  _1550
REMARK  731  A    between atoms: _1552  and  _1553
REMARK  732  A    between atoms: _1553  and  _1554
REMARK  733  A    between atoms: _1553  and  _1556
REMARK  734  A    between atoms: _1556  and  _1557
REMARK  735  A    between atoms: _1557  and  _1558
REMARK  736  A    between atoms: _1558  and  _1559
REMARK  737  A    between atoms: _1561  and  _1562
REMARK  738  A    between atoms: _1562  and  _1563
REMARK  739  A    between atoms: _1562  and  _1565
REMARK  740  A    between atoms: _1565  and  _1566
REMARK  741  A    between atoms: _1571  and  _1572
REMARK  742  A    between atoms: _1572  and  _1573
REMARK  743  A    between atoms: _1572  and  _1575
REMARK  744  A    between atoms: _1577  and  _1578
REMARK  745  A    between atoms: _1578  and  _1579
REMARK  746  A    between atoms: _1578  and  _1581
REMARK  747  A    between atoms: _1581  and  _1582
REMARK  748  A    between atoms: _1582  and  _1583
REMARK  749  A    between atoms: _1586  and  _1587
REMARK  750  A    between atoms: _1587  and  _1588
REMARK  751  A    between atoms: _1587  and  _1590
REMARK  752  A    between atoms: _1590  and  _1591
REMARK  753  A    between atoms: _1597  and  _1598
REMARK  754  A    between atoms: _1598  and  _1599
REMARK  755  A    between atoms: _1598  and  _1601
REMARK  756  A    between atoms: _1601  and  _1602
REMARK  757  A    between atoms: _1605  and  _1606
REMARK  758  A    between atoms: _1606  and  _1607
REMARK  759  A    between atoms: _1609  and  _1610
REMARK  760  A    between atoms: _1610  and  _1611
REMARK  761  A    between atoms: _1610  and  _1613
REMARK  762  A    between atoms: _1613  and  _1614
REMARK  763  A    between atoms: _1622  and  _1623
REMARK  764  A    between atoms: _1628  and  _1629
REMARK  765  A    between atoms: _1629  and  _1630
REMARK  766  A    between atoms: _1629  and  _1632
REMARK  767  A    between atoms: _1632  and  _1633
REMARK  768  A    between atoms: _1636  and  _1637
REMARK  769  A    between atoms: _1637  and  _1638
REMARK  770  A    between atoms: _1637  and  _1640
REMARK  771  A    between atoms: _1643  and  _1644
REMARK  772  A    between atoms: _1644  and  _1645
REMARK  773  A    between atoms: _1644  and  _1647
REMARK  774  A    between atoms: _1647  and  _1648
REMARK  775  A    between atoms: _1651  and  _1652
REMARK  776  A    between atoms: _1652  and  _1653
REMARK  777  A    between atoms: _1652  and  _1655
REMARK  778  A    between atoms: _1655  and  _1656
REMARK  779  A    between atoms: _1662  and  _1663
REMARK  780  A    between atoms: _1663  and  _1664
REMARK  781  A    between atoms: _1663  and  _1666
REMARK  782  A    between atoms: _1669  and  _1670
REMARK  783  A    between atoms: _1670  and  _1671
REMARK  784  A    between atoms: _1670  and  _1673
REMARK  785  A    between atoms: _1673  and  _1674
REMARK  786  A    between atoms: _1674  and  _1675
REMARK                            x       y       z     vdW  Elec       q    Type
REMARK                         _______ _______ _______ _____ _____    ______ ____
ROOT
ATOM      1  C   UNL     1       0.381  14.338  11.892  0.00  0.00    +0.177 C 
ENDROOT
BRANCH   1   4
ATOM      2  C   UNL     1       0.034  12.755  10.105  0.00  0.00    +0.262 C 
ATOM      3  O   UNL     1      -0.230  11.871  10.928  0.00  0.00    -0.271 OA
ATOM      4  N   UNL     1       0.363  14.011  10.453  0.00  0.00    -0.196 NA
BRANCH   2   5
ATOM      5  C   UNL     1      -0.048  12.421   8.602  0.00  0.00    +0.173 C 
BRANCH   5   8
ATOM      6  C   UNL     1      -1.101  14.469   7.826  0.00  0.00    +0.262 C 
ATOM      7  O   UNL     1      -2.064  14.301   8.590  0.00  0.00    -0.271 OA
ATOM      8  N   UNL     1      -0.077  13.609   7.771  0.00  0.00    -0.196 NA
BRANCH   6   9
ATOM      9  C   UNL     1      -1.063  15.687   6.910  0.00  0.00    +0.173 C 
BRANCH   9  12
ATOM     10  C   UNL     1       1.294  16.281   7.143  0.00  0.00    +0.262 C 
ATOM     11  O   UNL     1       1.243  16.171   8.377  0.00  0.00    -0.271 OA
ATOM     12  N   UNL     1       0.262  16.011   6.351  0.00  0.00    -0.196 NA
BRANCH  10  13
ATOM     13  C   UNL     1       2.575  16.784   6.511  0.00  0.00    +0.173 C 
BRANCH  13  16
ATOM     14  C   UNL     1       2.948  15.122   4.745  0.00  0.00    +0.262 C 
ATOM     15  O   UNL     1       2.894  14.168   5.527  0.00  0.00    -0.271 OA
ATOM     16  N   UNL     1       2.773  16.380   5.108  0.00  0.00    -0.196 NA
BRANCH  14  17
ATOM     17  C   UNL     1       3.205  14.897   3.246  0.00  0.00    +0.182 C 
BRANCH  17  19
ATOM     18  C   UNL     1       4.321  16.963   2.462  0.00  0.00    +0.267 C 
ATOM     19  N   UNL     1       4.368  15.671   2.772  0.00  0.00    -0.196 NA
ATOM     20  O   UNL     1       3.344  17.680   2.704  0.00  0.00    -0.271 OA
BRANCH  18  21
ATOM     21  CA  UNL     1       5.540  17.606   1.816  0.00  0.00    +0.217 C 
BRANCH  21  22
ATOM     22  C   UNL     1       5.355  17.643   0.303  0.00  0.00    +0.216 C 
ATOM     23  O   UNL     1       6.410  18.417  -0.251  0.00  0.00    -0.218 OA
ENDBRANCH  21  22
BRANCH  21  25
ATOM     24  C   UNL     1       7.419  17.142   3.339  0.00  0.00    +0.319 C 
ATOM     25  N   UNL     1       6.832  17.035   2.144  0.00  0.00    -0.221 NA
BRANCH  24  26
ATOM     26  O   UNL     1       6.828  17.601   4.312  0.00  0.00    -0.309 OA
BRANCH  26  27
ATOM     27  O   UNL     1       7.001  18.239   4.048  0.00  0.00    -0.168 OA
ATOM     28  C   UNL     1       7.468  17.409   3.254  0.00  0.00    +0.232 C 
ENDBRANCH  26  27
ENDBRANCH  24  26
ENDBRANCH  21  25
ENDBRANCH  18  21
ENDBRANCH  17  19
BRANCH  17  29
ATOM     29  C   UNL     1       3.404  13.408   2.881  0.00  0.00    +0.120 C 
BRANCH  29  30
ATOM     30  C   UNL     1       2.270  12.464   3.223  0.00  0.00    +0.263 C 
ATOM     31  O   UNL     1       2.480  11.275   3.521  0.00  0.00    -0.272 OA
ATOM     32  N   UNL     1       1.070  12.959   3.167  0.00  0.00    -0.088 NA
ENDBRANCH  29  30
ENDBRANCH  17  29
ENDBRANCH  14  17
ENDBRANCH  13  16
BRANCH  13  33
ATOM     33  C   UNL     1       2.640  18.307   6.625  0.00  0.00    +0.031 C 
BRANCH  33  34
ATOM     34  C   UNL     1       4.014  18.926   6.297  0.00  0.00    +0.004 C 
BRANCH  34  35
ATOM     35  C   UNL     1       3.952  20.425   6.446  0.00  0.00    +0.021 C 
BRANCH  35  36
ATOM     36  C   UNL     1       5.265  21.150   6.216  0.00  0.00    +0.109 C 
ATOM     37  N   UNL     1       6.197  21.015   7.366  0.00  0.00    -0.131 NA
ENDBRANCH  35  36
ENDBRANCH  34  35
ENDBRANCH  33  34
ENDBRANCH  13  33
ENDBRANCH  10  13
ENDBRANCH   9  12
BRANCH   9  38
ATOM     38  C   UNL     1      -2.077  15.486   5.780  0.00  0.00    +0.043 C 
BRANCH  38  39
ATOM     39  C   UNL     1      -1.926  14.147   5.046  0.00  0.00    +0.116 C 
BRANCH  39  40
ATOM     40  C   UNL     1      -2.789  13.961   3.809  0.00  0.00    +0.365 C 
ATOM     41  O   UNL     1      -3.097  12.799   3.463  0.00  0.00    -0.246 OA
ATOM     42  O   UNL     1      -3.069  14.970   3.133  0.00  0.00    -0.246 OA
ENDBRANCH  39  40
ENDBRANCH  38  39
ENDBRANCH   9  38
ENDBRANCH   6   9
ENDBRANCH   5   8
BRANCH   5  43
ATOM     43  C   UNL     1       1.071  11.441   8.145  0.00  0.00    +0.029 C 
ATOM     44  C   UNL     1       0.793  10.966   6.697  0.00  0.00    +0.002 C 
BRANCH  43  45
ATOM     45  C   UNL     1       2.492  12.059   8.293  0.00  0.00    +0.002 C 
ATOM     46  C   UNL     1       3.188  11.897   9.721  0.00  0.00    +0.000 C 
ENDBRANCH  43  45
ENDBRANCH   5  43
ENDBRANCH   2   5
ENDBRANCH   1   4
BRANCH   1  47
ATOM     47  C   UNL     1      -0.970  13.993  12.541  0.00  0.00    +0.262 C 
ATOM     48  O   UNL     1      -1.001  13.585  13.706  0.00  0.00    -0.271 OA
ATOM     49  N   UNL     1      -2.083  14.170  11.785  0.00  0.00    -0.196 NA
BRANCH  49  50
ATOM     50  C   UNL     1      -3.387  14.000  12.413  0.00  0.00    +0.173 C 
BRANCH  50  51
ATOM     51  C   UNL     1      -3.656  12.559  12.712  0.00  0.00    +0.262 C 
ATOM     52  O   UNL     1      -4.158  12.223  13.783  0.00  0.00    -0.271 OA
ATOM     53  N   UNL     1      -3.306  11.679  11.773  0.00  0.00    -0.196 NA
BRANCH  53  54
ATOM     54  C   UNL     1      -3.475  10.261  12.026  0.00  0.00    +0.173 C 
BRANCH  54  55
ATOM     55  C   UNL     1      -2.650   9.819  13.227  0.00  0.00    +0.262 C 
ATOM     56  O   UNL     1      -3.079   8.939  13.978  0.00  0.00    -0.271 OA
ATOM     57  N   UNL     1      -1.423  10.362  13.367  0.00  0.00    -0.196 NA
BRANCH  57  58
ATOM     58  C   UNL     1      -0.571   9.962  14.473  0.00  0.00    +0.173 C 
BRANCH  58  59
ATOM     59  C   UNL     1      -1.175  10.346  15.819  0.00  0.00    +0.262 C 
ATOM     60  O   UNL     1      -1.102   9.573  16.787  0.00  0.00    -0.271 OA
ATOM     61  N   UNL     1      -1.713  11.574  15.891  0.00  0.00    -0.196 NA
BRANCH  61  62
ATOM     62  C   UNL     1      -2.308  12.015  17.162  0.00  0.00    +0.173 C 
BRANCH  62  63
ATOM     63  C   UNL     1      -3.609  11.308  17.467  0.00  0.00    +0.261 C 
ATOM     64  O   UNL     1      -3.874  10.943  18.623  0.00  0.00    -0.271 OA
ATOM     65  N   UNL     1      -4.423  11.042  16.405  0.00  0.00    -0.204 NA
BRANCH  65  66
ATOM     66  C   UNL     1      -5.635  10.253  16.637  0.00  0.00    +0.115 C 
BRANCH  66  67
ATOM     67  C   UNL     1      -6.543  10.302  15.386  0.00  0.00    +0.022 C 
ATOM     68  C   UNL     1      -7.679   9.215  15.416  0.00  0.00    +0.002 C 
BRANCH  67  69
ATOM     69  C   UNL     1      -7.158  11.708  15.226  0.00  0.00    +0.002 C 
ATOM     70  C   UNL     1      -7.871  11.910  13.899  0.00  0.00    +0.000 C 
ENDBRANCH  67  69
ENDBRANCH  66  67
ENDBRANCH  65  66
ENDBRANCH  62  63
BRANCH  62  71
ATOM     71  C   UNL     1      -2.512  13.525  17.111  0.00  0.00    +0.031 C 
BRANCH  71  72
ATOM     72  C   UNL     1      -1.215  14.341  17.011  0.00  0.00    +0.002 C 
ATOM     73  C   UNL     1      -0.302  14.143  18.263  0.00  0.00    +0.000 C 
ATOM     74  C   UNL     1      -1.526  15.817  16.820  0.00  0.00    +0.000 C 
ENDBRANCH  71  72
ENDBRANCH  62  71
ENDBRANCH  61  62
ENDBRANCH  58  59
BRANCH  58  75
ATOM     75  C   UNL     1       0.847  10.526  14.305  0.00  0.00    +0.043 C 
BRANCH  75  76
ATOM     76  C   UNL     1       1.577  10.063  13.034  0.00  0.00    +0.116 C 
BRANCH  76  77
ATOM     77  C   UNL     1       1.614   8.553  12.871  0.00  0.00    +0.365 C 
ATOM     78  O   UNL     1       1.659   7.832  13.894  0.00  0.00    -0.246 OA
ATOM     79  O   UNL     1       1.530   8.091  11.706  0.00  0.00    -0.246 OA
ENDBRANCH  76  77
ENDBRANCH  75  76
ENDBRANCH  58  75
ENDBRANCH  57  58
ENDBRANCH  54  55
BRANCH  54  80
ATOM     80  C   UNL     1      -3.026   9.495  10.761  0.00  0.00    +0.035 C 
BRANCH  80  81
ATOM     81  C   UNL     1      -2.782   7.997  10.912  0.00  0.00    +0.049 C 
BRANCH  81  82
ATOM     82  C   UNL     1      -2.104   7.441   9.667  0.00  0.00    +0.220 C 
BRANCH  82  83
ATOM     83  N   UNL     1      -0.651   7.660   9.651  0.00  0.00    -0.087 NA
ATOM     84  C   UNL     1       0.093   7.496   8.563  0.00  0.00    +0.535 C 
ATOM     85  N   UNL     1       1.399   7.695   8.613  0.00  0.00    +0.135 NA
ATOM     86  N   UNL     1      -0.469   7.141   7.411  0.00  0.00    +0.135 NA
ENDBRANCH  82  83
ENDBRANCH  81  82
ENDBRANCH  80  81
ENDBRANCH  54  80
ENDBRANCH  53  54
ENDBRANCH  50  51
BRANCH  50  87
ATOM     87  C   UNL     1      -4.471  14.632  11.531  0.00  0.00    +0.031 C 
BRANCH  87  88
ATOM     88  C   UNL     1      -5.872  14.651  12.178  0.00  0.00    +0.002 C 
ATOM     89  C   UNL     1      -5.889  15.450  13.499  0.00  0.00    +0.000 C 
ATOM     90  C   UNL     1      -6.863  15.243  11.236  0.00  0.00    +0.000 C 
ENDBRANCH  87  88
ENDBRANCH  50  87
ENDBRANCH  49  50
ENDBRANCH   1  47
BRANCH   1  91
ATOM     91  C   UNL     1       0.691  15.846  12.128  0.00  0.00    +0.057 C 
BRANCH  91  92
ATOM     92  C   UNL     1      -0.498  16.770  11.915  0.00  0.00    -0.020 A 
ATOM     93  C   UNL     1      -1.345  17.098  12.971  0.00  0.00    -0.004 A 
ATOM     94  C   UNL     1      -2.501  17.851  12.752  0.00  0.00    -0.000 A 
ATOM     95  C   UNL     1      -2.805  18.309  11.503  0.00  0.00    -0.000 A 
ATOM     96  C   UNL     1      -1.973  18.010  10.442  0.00  0.00    -0.000 A 
ATOM     97  C   UNL     1      -0.818  17.245  10.649  0.00  0.00    -0.004 A 
ENDBRANCH  91  92
ENDBRANCH   1  91
TORSDOF 50
REMARK  Name = /Users/mlugowska/PhD/ML_residence_time_prediction/protein_files/5J64_protein.pdb
REMARK  786 active torsions:
REMARK  status: ('A' for Active; 'I' for Inactive)
REMARK    1  A    between atoms: _2  and  _3
REMARK    2  A    between atoms: _2  and  _5
REMARK    3  A    between atoms: _5  and  _6
REMARK    4  A    between atoms: _6  and  _7
REMARK    5  A    between atoms: _10  and  _11
REMARK    6  A    between atoms: _11  and  _12
REMARK    7  A    between atoms: _11  and  _14
REMARK    8  A    between atoms: _17  and  _18
REMARK    9  A    between atoms: _18  and  _19
REMARK   10  A    between atoms: _18  and  _21
REMARK   11  A    between atoms: _21  and  _22
REMARK   12  A    between atoms: _22  and  _23
REMARK   13  A    between atoms: _26  and  _27
REMARK   14  A    between atoms: _27  and  _28
REMARK   15  A    between atoms: _27  and  _30
REMARK   16  A    between atoms: _33  and  _34
REMARK   17  A    between atoms: _34  and  _35
REMARK   18  A    between atoms: _34  and  _37
REMARK   19  A    between atoms: _37  and  _38
REMARK   20  A    between atoms: _44  and  _45
REMARK   21  A    between atoms: _45  and  _46
REMARK   22  A    between atoms: _49  and  _50
REMARK   23  A    between atoms: _50  and  _51
REMARK   24  A    between atoms: _50  and  _53
REMARK   25  A    between atoms: _53  and  _54
REMARK   26  A    between atoms: _60  and  _61
REMARK   27  A    between atoms: _61  and  _62
REMARK   28  A    between atoms: _61  and  _64
REMARK   29  A    between atoms: _64  and  _65
REMARK   30  A    between atoms: _65  and  _66
REMARK   31  A    between atoms: _69  and  _70
REMARK   32  A    between atoms: _70  and  _71
REMARK   33  A    between atoms: _74  and  _75
REMARK   34  A    between atoms: _75  and  _76
REMARK   35  A    between atoms: _75  and  _78
REMARK   36  A    between atoms: _78  and  _79
REMARK   37  A    between atoms: _79  and  _80
REMARK   38  A    between atoms: _83  and  _84
REMARK   39  A    between atoms: _84  and  _85
REMARK   40  A    between atoms: _84  and  _87
REMARK   41  A    between atoms: _87  and  _88
REMARK   42  A    between atoms: _91  and  _92
REMARK   43  A    between atoms: _92  and  _93
REMARK   44  A    between atoms: _96  and  _97
REMARK   45  A    between atoms: _97  and  _98
REMARK   46  A    between atoms: _97  and  _100
REMARK   47  A    between atoms: _100  and  _101
REMARK   48  A    between atoms: _101  and  _102
REMARK   49  A    between atoms: _105  and  _106
REMARK   50  A    between atoms: _106  and  _107
REMARK   51  A    between atoms: _106  and  _109
REMARK   52  A    between atoms: _109  and  _110
REMARK   53  A    between atoms: _113  and  _114
REMARK   54  A    between atoms: _114  and  _115
REMARK   55  A    between atoms: _114  and  _117
REMARK   56  A    between atoms: _117  and  _118
REMARK   57  A    between atoms: _118  and  _119
REMARK   58  A    between atoms: _121  and  _122
REMARK   59  A    between atoms: _122  and  _123
REMARK   60  A    between atoms: _122  and  _125
REMARK   61  A    between atoms: _127  and  _128
REMARK   62  A    between atoms: _128  and  _129
REMARK   63  A    between atoms: _128  and  _131
REMARK   64  A    between atoms: _131  and  _132
REMARK   65  A    between atoms: _135  and  _136
REMARK   66  A    between atoms: _136  and  _137
REMARK   67  A    between atoms: _136  and  _139
REMARK   68  A    between atoms: _139  and  _140
REMARK   69  A    between atoms: _143  and  _144
REMARK   70  A    between atoms: _144  and  _145
REMARK   71  A    between atoms: _144  and  _147
REMARK   72  A    between atoms: _147  and  _148
REMARK   73  A    between atoms: _151  and  _152
REMARK   74  A    between atoms: _152  and  _153
REMARK   75  A    between atoms: _152  and  _155
REMARK   76  A    between atoms: _155  and  _156
REMARK   77  A    between atoms: _159  and  _160
REMARK   78  A    between atoms: _160  and  _161
REMARK   79  A    between atoms: _160  and  _163
REMARK   80  A    between atoms: _166  and  _167
REMARK   81  A    between atoms: _167  and  _170
REMARK   82  A    between atoms: _170  and  _171
REMARK   83  A    between atoms: _181  and  _183
REMARK   84  A    between atoms: _183  and  _184
REMARK   85  A    between atoms: _189  and  _194
REMARK   86  A    between atoms: _192  and  _195
REMARK   87  A    between atoms: _193  and  _194
REMARK   88  A    between atoms: _195  and  _196
REMARK   89  A    between atoms: _201  and  _202
REMARK   90  A    between atoms: _202  and  _203
REMARK   91  A    between atoms: _202  and  _205
REMARK   92  A    between atoms: _207  and  _208
REMARK   93  A    between atoms: _208  and  _209
REMARK   94  A    between atoms: _208  and  _211
REMARK   95  A    between atoms: _211  and  _212
REMARK   96  A    between atoms: _215  and  _216
REMARK   97  A    between atoms: _216  and  _217
REMARK   98  A    between atoms: _216  and  _219
REMARK   99  A    between atoms: _219  and  _220
REMARK  100  A    between atoms: _220  and  _221
REMARK  101  A    between atoms: _221  and  _222
REMARK  102  A    between atoms: _224  and  _225
REMARK  103  A    between atoms: _225  and  _226
REMARK  104  A    between atoms: _225  and  _228
REMARK  105  A    between atoms: _228  and  _229
REMARK  106  A    between atoms: _229  and  _230
REMARK  107  A    between atoms: _233  and  _234
REMARK  108  A    between atoms: _234  and  _235
REMARK  109  A    between atoms: _234  and  _237
REMARK  110  A    between atoms: _237  and  _238
REMARK  111  A    between atoms: _241  and  _242
REMARK  112  A    between atoms: _242  and  _243
REMARK  113  A    between atoms: _242  and  _245
REMARK  114  A    between atoms: _245  and  _246
REMARK  115  A    between atoms: _252  and  _253
REMARK  116  A    between atoms: _253  and  _254
REMARK  117  A    between atoms: _253  and  _256
REMARK  118  A    between atoms: _256  and  _257
REMARK  119  A    between atoms: _260  and  _261
REMARK  120  A    between atoms: _261  and  _262
REMARK  121  A    between atoms: _261  and  _264
REMARK  122  A    between atoms: _264  and  _265
REMARK  123  A    between atoms: _265  and  _266
REMARK  124  A    between atoms: _266  and  _267
REMARK  125  A    between atoms: _271  and  _272
REMARK  126  A    between atoms: _272  and  _273
REMARK  127  A    between atoms: _272  and  _275
REMARK  128  A    between atoms: _275  and  _276
REMARK  129  A    between atoms: _276  and  _277
REMARK  130  A    between atoms: _280  and  _281
REMARK  131  A    between atoms: _281  and  _282
REMARK  132  A    between atoms: _281  and  _284
REMARK  133  A    between atoms: _284  and  _285
REMARK  134  A    between atoms: _288  and  _289
REMARK  135  A    between atoms: _289  and  _292
REMARK  136  A    between atoms: _292  and  _293
REMARK  137  A    between atoms: _309  and  _310
REMARK  138  A    between atoms: _309  and  _312
REMARK  139  A    between atoms: _312  and  _313
REMARK  140  A    between atoms: _316  and  _317
REMARK  141  A    between atoms: _317  and  _318
REMARK  142  A    between atoms: _317  and  _320
REMARK  143  A    between atoms: _322  and  _323
REMARK  144  A    between atoms: _323  and  _324
REMARK  145  A    between atoms: _323  and  _326
REMARK  146  A    between atoms: _328  and  _329
REMARK  147  A    between atoms: _329  and  _330
REMARK  148  A    between atoms: _329  and  _332
REMARK  149  A    between atoms: _332  and  _333
REMARK  150  A    between atoms: _336  and  _337
REMARK  151  A    between atoms: _337  and  _338
REMARK  152  A    between atoms: _341  and  _342
REMARK  153  A    between atoms: _342  and  _343
REMARK  154  A    between atoms: _342  and  _345
REMARK  155  A    between atoms: _345  and  _346
REMARK  156  A    between atoms: _349  and  _350
REMARK  157  A    between atoms: _350  and  _351
REMARK  158  A    between atoms: _350  and  _353
REMARK  159  A    between atoms: _353  and  _354
REMARK  160  A    between atoms: _357  and  _358
REMARK  161  A    between atoms: _358  and  _359
REMARK  162  A    between atoms: _358  and  _361
REMARK  163  A    between atoms: _361  and  _362
REMARK  164  A    between atoms: _362  and  _363
REMARK  165  A    between atoms: _363  and  _364
REMARK  166  A    between atoms: _366  and  _367
REMARK  167  A    between atoms: _367  and  _368
REMARK  168  A    between atoms: _367  and  _370
REMARK  169  A    between atoms: _370  and  _371
REMARK  170  A    between atoms: _374  and  _375
REMARK  171  A    between atoms: _375  and  _376
REMARK  172  A    between atoms: _375  and  _378
REMARK  173  A    between atoms: _378  and  _379
REMARK  174  A    between atoms: _379  and  _380
REMARK  175  A    between atoms: _380  and  _381
REMARK  176  A    between atoms: _385  and  _386
REMARK  177  A    between atoms: _386  and  _387
REMARK  178  A    between atoms: _386  and  _389
REMARK  179  A    between atoms: _389  and  _390
REMARK  180  A    between atoms: _397  and  _398
REMARK  181  A    between atoms: _398  and  _399
REMARK  182  A    between atoms: _398  and  _401
REMARK  183  A    between atoms: _401  and  _402
REMARK  184  A    between atoms: _402  and  _403
REMARK  185  A    between atoms: _406  and  _407
REMARK  186  A    between atoms: _407  and  _408
REMARK  187  A    between atoms: _407  and  _410
REMARK  188  A    between atoms: _412  and  _413
REMARK  189  A    between atoms: _413  and  _414
REMARK  190  A    between atoms: _413  and  _416
REMARK  191  A    between atoms: _416  and  _417
REMARK  192  A    between atoms: _420  and  _421
REMARK  193  A    between atoms: _421  and  _422
REMARK  194  A    between atoms: _421  and  _424
REMARK  195  A    between atoms: _427  and  _428
REMARK  196  A    between atoms: _428  and  _429
REMARK  197  A    between atoms: _428  and  _431
REMARK  198  A    between atoms: _431  and  _432
REMARK  199  A    between atoms: _436  and  _437
REMARK  200  A    between atoms: _442  and  _443
REMARK  201  A    between atoms: _443  and  _444
REMARK  202  A    between atoms: _443  and  _446
REMARK  203  A    between atoms: _448  and  _449
REMARK  204  A    between atoms: _449  and  _450
REMARK  205  A    between atoms: _449  and  _452
REMARK  206  A    between atoms: _452  and  _453
REMARK  207  A    between atoms: _453  and  _454
REMARK  208  A    between atoms: _454  and  _455
REMARK  209  A    between atoms: _457  and  _458
REMARK  210  A    between atoms: _458  and  _459
REMARK  211  A    between atoms: _458  and  _461
REMARK  212  A    between atoms: _461  and  _462
REMARK  213  A    between atoms: _465  and  _466
REMARK  214  A    between atoms: _466  and  _467
REMARK  215  A    between atoms: _466  and  _469
REMARK  216  A    between atoms: _469  and  _470
REMARK  217  A    between atoms: _473  and  _474
REMARK  218  A    between atoms: _474  and  _475
REMARK  219  A    between atoms: _474  and  _477
REMARK  220  A    between atoms: _479  and  _480
REMARK  221  A    between atoms: _480  and  _481
REMARK  222  A    between atoms: _483  and  _484
REMARK  223  A    between atoms: _484  and  _485
REMARK  224  A    between atoms: _484  and  _487
REMARK  225  A    between atoms: _487  and  _488
REMARK  226  A    between atoms: _488  and  _489
REMARK  227  A    between atoms: _489  and  _490
REMARK  228  A    between atoms: _492  and  _493
REMARK  229  A    between atoms: _493  and  _494
REMARK  230  A    between atoms: _493  and  _496
REMARK  231  A    between atoms: _496  and  _497
REMARK  232  A    between atoms: _497  and  _498
REMARK  233  A    between atoms: _501  and  _502
REMARK  234  A    between atoms: _502  and  _503
REMARK  235  A    between atoms: _502  and  _505
REMARK  236  A    between atoms: _505  and  _506
REMARK  237  A    between atoms: _509  and  _510
REMARK  238  A    between atoms: _510  and  _511
REMARK  239  A    between atoms: _510  and  _513
REMARK  240  A    between atoms: _513  and  _514
REMARK  241  A    between atoms: _519  and  _520
REMARK  242  A    between atoms: _520  and  _521
REMARK  243  A    between atoms: _520  and  _523
REMARK  244  A    between atoms: _523  and  _524
REMARK  245  A    between atoms: _527  and  _528
REMARK  246  A    between atoms: _528  and  _529
REMARK  247  A    between atoms: _528  and  _531
REMARK  248  A    between atoms: _531  and  _532
REMARK  249  A    between atoms: _535  and  _536
REMARK  250  A    between atoms: _536  and  _537
REMARK  251  A    between atoms: _536  and  _539
REMARK  252  A    between atoms: _539  and  _540
REMARK  253  A    between atoms: _543  and  _544
REMARK  254  A    between atoms: _544  and  _545
REMARK  255  A    between atoms: _544  and  _547
REMARK  256  A    between atoms: _547  and  _548
REMARK  257  A    between atoms: _552  and  _553
REMARK  258  A    between atoms: _558  and  _559
REMARK  259  A    between atoms: _559  and  _560
REMARK  260  A    between atoms: _559  and  _562
REMARK  261  A    between atoms: _562  and  _563
REMARK  262  A    between atoms: _566  and  _567
REMARK  263  A    between atoms: _567  and  _568
REMARK  264  A    between atoms: _567  and  _570
REMARK  265  A    between atoms: _570  and  _571
REMARK  266  A    between atoms: _571  and  _572
REMARK  267  A    between atoms: _572  and  _573
REMARK  268  A    between atoms: _575  and  _576
REMARK  269  A    between atoms: _576  and  _577
REMARK  270  A    between atoms: _576  and  _579
REMARK  271  A    between atoms: _579  and  _580
REMARK  272  A    between atoms: _580  and  _581
REMARK  273  A    between atoms: _584  and  _585
REMARK  274  A    between atoms: _585  and  _586
REMARK  275  A    between atoms: _585  and  _588
REMARK  276  A    between atoms: _588  and  _589
REMARK  277  A    between atoms: _592  and  _593
REMARK  278  A    between atoms: _593  and  _594
REMARK  279  A    between atoms: _593  and  _596
REMARK  280  A    between atoms: _596  and  _597
REMARK  281  A    between atoms: _597  and  _598
REMARK  282  A    between atoms: _598  and  _599
REMARK  283  A    between atoms: _603  and  _604
REMARK  284  A    between atoms: _604  and  _605
REMARK  285  A    between atoms: _604  and  _607
REMARK  286  A    between atoms: _610  and  _611
REMARK  287  A    between atoms: _611  and  _612
REMARK  288  A    between atoms: _611  and  _614
REMARK  289  A    between atoms: _614  and  _615
REMARK  290  A    between atoms: _618  and  _619
REMARK  291  A    between atoms: _619  and  _620
REMARK  292  A    between atoms: _619  and  _622
REMARK  293  A    between atoms: _625  and  _626
REMARK  294  A    between atoms: _626  and  _627
REMARK  295  A    between atoms: _626  and  _629
REMARK  296  A    between atoms: _629  and  _630
REMARK  297  A    between atoms: _633  and  _634
REMARK  298  A    between atoms: _634  and  _635
REMARK  299  A    between atoms: _634  and  _637
REMARK  300  A    between atoms: _640  and  _641
REMARK  301  A    between atoms: _641  and  _642
REMARK  302  A    between atoms: _641  and  _644
REMARK  303  A    between atoms: _644  and  _645
REMARK  304  A    between atoms: _648  and  _649
REMARK  305  A    between atoms: _649  and  _650
REMARK  306  A    between atoms: _649  and  _652
REMARK  307  A    between atoms: _655  and  _656
REMARK  308  A    between atoms: _656  and  _657
REMARK  309  A    between atoms: _659  and  _660
REMARK  310  A    between atoms: _660  and  _661
REMARK  311  A    between atoms: _660  and  _663
REMARK  312  A    between atoms: _663  and  _664
REMARK  313  A    between atoms: _667  and  _668
REMARK  314  A    between atoms: _668  and  _669
REMARK  315  A    between atoms: _671  and  _672
REMARK  316  A    between atoms: _672  and  _673
REMARK  317  A    between atoms: _672  and  _675
REMARK  318  A    between atoms: _675  and  _676
REMARK  319  A    between atoms: _676  and  _677
REMARK  320  A    between atoms: _679  and  _680
REMARK  321  A    between atoms: _680  and  _681
REMARK  322  A    between atoms: _680  and  _683
REMARK  323  A    between atoms: _686  and  _687
REMARK  324  A    between atoms: _687  and  _688
REMARK  325  A    between atoms: _687  and  _690
REMARK  326  A    between atoms: _690  and  _691
REMARK  327  A    between atoms: _691  and  _692
REMARK  328  A    between atoms: _692  and  _693
REMARK  329  A    between atoms: _695  and  _696
REMARK  330  A    between atoms: _696  and  _697
REMARK  331  A    between atoms: _700  and  _701
REMARK  332  A    between atoms: _701  and  _702
REMARK  333  A    between atoms: _701  and  _704
REMARK  334  A    between atoms: _704  and  _705
REMARK  335  A    between atoms: _708  and  _709
REMARK  336  A    between atoms: _709  and  _710
REMARK  337  A    between atoms: _709  and  _712
REMARK  338  A    between atoms: _712  and  _713
REMARK  339  A    between atoms: _716  and  _717
REMARK  340  A    between atoms: _717  and  _720
REMARK  341  A    between atoms: _720  and  _721
REMARK  342  A    between atoms: _733  and  _734
REMARK  343  A    between atoms: _733  and  _735
REMARK  344  A    between atoms: _741  and  _744
REMARK  345  A    between atoms: _744  and  _745
REMARK  346  A    between atoms: _758  and  _759
REMARK  347  A    between atoms: _758  and  _761
REMARK  348  A    between atoms: _759  and  _760
REMARK  349  A    between atoms: _765  and  _766
REMARK  350  A    between atoms: _768  and  _769
REMARK  351  A    between atoms: _769  and  _770
REMARK  352  A    between atoms: _769  and  _772
REMARK  353  A    between atoms: _775  and  _776
REMARK  354  A    between atoms: _776  and  _777
REMARK  355  A    between atoms: _776  and  _779
REMARK  356  A    between atoms: _779  and  _780
REMARK  357  A    between atoms: _783  and  _784
REMARK  358  A    between atoms: _784  and  _785
REMARK  359  A    between atoms: _788  and  _789
REMARK  360  A    between atoms: _789  and  _790
REMARK  361  A    between atoms: _789  and  _792
REMARK  362  A    between atoms: _792  and  _793
REMARK  363  A    between atoms: _793  and  _794
REMARK  364  A    between atoms: _794  and  _795
REMARK  365  A    between atoms: _797  and  _798
REMARK  366  A    between atoms: _798  and  _799
REMARK  367  A    between atoms: _798  and  _801
REMARK  368  A    between atoms: _803  and  _804
REMARK  369  A    between atoms: _804  and  _805
REMARK  370  A    between atoms: _807  and  _808
REMARK  371  A    between atoms: _808  and  _809
REMARK  372  A    between atoms: _808  and  _811
REMARK  373  A    between atoms: _814  and  _815
REMARK  374  A    between atoms: _815  and  _816
REMARK  375  A    between atoms: _815  and  _818
REMARK  376  A    between atoms: _818  and  _819
REMARK  377  A    between atoms: _819  and  _820
REMARK  378  A    between atoms: _820  and  _821
REMARK  379  A    between atoms: _823  and  _824
REMARK  380  A    between atoms: _824  and  _825
REMARK  381  A    between atoms: _828  and  _829
REMARK  382  A    between atoms: _829  and  _830
REMARK  383  A    between atoms: _829  and  _832
REMARK  384  A    between atoms: _832  and  _833
REMARK  385  A    between atoms: _839  and  _840
REMARK  386  A    between atoms: _840  and  _841
REMARK  387  A    between atoms: _840  and  _843
REMARK  388  A    between atoms: _843  and  _844
REMARK  389  A    between atoms: _844  and  _845
REMARK  390  A    between atoms: _847  and  _848
REMARK  391  A    between atoms: _848  and  _849
REMARK  392  A    between atoms: _848  and  _851
REMARK  393  A    between atoms: _851  and  _852
REMARK  394  A    between atoms: _852  and  _853
REMARK  395  A    between atoms: _856  and  _857
REMARK  396  A    between atoms: _857  and  _858
REMARK  397  A    between atoms: _861  and  _862
REMARK  398  A    between atoms: _862  and  _863
REMARK  399  A    between atoms: _862  and  _865
REMARK  400  A    between atoms: _865  and  _866
REMARK  401  A    between atoms: _869  and  _870
REMARK  402  A    between atoms: _870  and  _871
REMARK  403  A    between atoms: _870  and  _873
REMARK  404  A    between atoms: _873  and  _874
REMARK  405  A    between atoms: _874  and  _875
REMARK  406  A    between atoms: _878  and  _879
REMARK  407  A    between atoms: _879  and  _880
REMARK  408  A    between atoms: _883  and  _884
REMARK  409  A    between atoms: _884  and  _885
REMARK  410  A    between atoms: _887  and  _888
REMARK  411  A    between atoms: _888  and  _889
REMARK  412  A    between atoms: _892  and  _893
REMARK  413  A    between atoms: _893  and  _894
REMARK  414  A    between atoms: _893  and  _896
REMARK  415  A    between atoms: _896  and  _897
REMARK  416  A    between atoms: _900  and  _901
REMARK  417  A    between atoms: _901  and  _902
REMARK  418  A    between atoms: _901  and  _904
REMARK  419  A    between atoms: _904  and  _905
REMARK  420  A    between atoms: _908  and  _909
REMARK  421  A    between atoms: _909  and  _910
REMARK  422  A    between atoms: _909  and  _912
REMARK  423  A    between atoms: _914  and  _915
REMARK  424  A    between atoms: _915  and  _916
REMARK  425  A    between atoms: _915  and  _918
REMARK  426  A    between atoms: _918  and  _919
REMARK  427  A    between atoms: _919  and  _920
REMARK  428  A    between atoms: _922  and  _923
REMARK  429  A    between atoms: _923  and  _924
REMARK  430  A    between atoms: _923  and  _926
REMARK  431  A    between atoms: _926  and  _927
REMARK  432  A    between atoms: _930  and  _931
REMARK  433  A    between atoms: _931  and  _932
REMARK  434  A    between atoms: _934  and  _935
REMARK  435  A    between atoms: _935  and  _936
REMARK  436  A    between atoms: _935  and  _938
REMARK  437  A    between atoms: _938  and  _939
REMARK  438  A    between atoms: _939  and  _940
REMARK  439  A    between atoms: _943  and  _944
REMARK  440  A    between atoms: _944  and  _945
REMARK  441  A    between atoms: _944  and  _947
REMARK  442  A    between atoms: _947  and  _948
REMARK  443  A    between atoms: _954  and  _955
REMARK  444  A    between atoms: _955  and  _956
REMARK  445  A    between atoms: _958  and  _959
REMARK  446  A    between atoms: _959  and  _960
REMARK  447  A    between atoms: _959  and  _962
REMARK  448  A    between atoms: _965  and  _966
REMARK  449  A    between atoms: _966  and  _967
REMARK  450  A    between atoms: _969  and  _970
REMARK  451  A    between atoms: _970  and  _971
REMARK  452  A    between atoms: _970  and  _973
REMARK  453  A    between atoms: _973  and  _974
REMARK  454  A    between atoms: _980  and  _981
REMARK  455  A    between atoms: _981  and  _982
REMARK  456  A    between atoms: _981  and  _984
REMARK  457  A    between atoms: _984  and  _985
REMARK  458  A    between atoms: _992  and  _993
REMARK  459  A    between atoms: _993  and  _994
REMARK  460  A    between atoms: _993  and  _996
REMARK  461  A    between atoms: _998  and  _999
REMARK  462  A    between atoms: _999  and  _1000
REMARK  463  A    between atoms: _1003  and  _1004
REMARK  464  A    between atoms: _1004  and  _1005
REMARK  465  A    between atoms: _1004  and  _1007
REMARK  466  A    between atoms: _1007  and  _1008
REMARK  467  A    between atoms: _1015  and  _1016
REMARK  468  A    between atoms: _1016  and  _1017
REMARK  469  A    between atoms: _1016  and  _1019
REMARK  470  A    between atoms: _1019  and  _1020
REMARK  471  A    between atoms: _1023  and  _1024
REMARK  472  A    between atoms: _1024  and  _1025
REMARK  473  A    between atoms: _1024  and  _1027
REMARK  474  A    between atoms: _1030  and  _1031
REMARK  475  A    between atoms: _1031  and  _1032
REMARK  476  A    between atoms: _1035  and  _1036
REMARK  477  A    between atoms: _1036  and  _1037
REMARK  478  A    between atoms: _1036  and  _1039
REMARK  479  A    between atoms: _1039  and  _1040
REMARK  480  A    between atoms: _1040  and  _1041
REMARK  481  A    between atoms: _1044  and  _1045
REMARK  482  A    between atoms: _1045  and  _1046
REMARK  483  A    between atoms: _1045  and  _1048
REMARK  484  A    between atoms: _1048  and  _1049
REMARK  485  A    between atoms: _1049  and  _1050
REMARK  486  A    between atoms: _1050  and  _1051
REMARK  487  A    between atoms: _1053  and  _1054
REMARK  488  A    between atoms: _1054  and  _1055
REMARK  489  A    between atoms: _1054  and  _1057
REMARK  490  A    between atoms: _1060  and  _1061
REMARK  491  A    between atoms: _1061  and  _1062
REMARK  492  A    between atoms: _1061  and  _1064
REMARK  493  A    between atoms: _1067  and  _1068
REMARK  494  A    between atoms: _1068  and  _1069
REMARK  495  A    between atoms: _1068  and  _1071
REMARK  496  A    between atoms: _1074  and  _1075
REMARK  497  A    between atoms: _1075  and  _1076
REMARK  498  A    between atoms: _1075  and  _1078
REMARK  499  A    between atoms: _1078  and  _1079
REMARK  500  A    between atoms: _1082  and  _1083
REMARK  501  A    between atoms: _1083  and  _1084
REMARK  502  A    between atoms: _1083  and  _1086
REMARK  503  A    between atoms: _1089  and  _1090
REMARK  504  A    between atoms: _1090  and  _1091
REMARK  505  A    between atoms: _1090  and  _1093
REMARK  506  A    between atoms: _1093  and  _1094
REMARK  507  A    between atoms: _1094  and  _1095
REMARK  508  A    between atoms: _1095  and  _1096
REMARK  509  A    between atoms: _1098  and  _1099
REMARK  510  A    between atoms: _1099  and  _1100
REMARK  511  A    between atoms: _1099  and  _1102
REMARK  512  A    between atoms: _1102  and  _1103
REMARK  513  A    between atoms: _1108  and  _1109
REMARK  514  A    between atoms: _1109  and  _1110
REMARK  515  A    between atoms: _1109  and  _1112
REMARK  516  A    between atoms: _1112  and  _1113
REMARK  517  A    between atoms: _1116  and  _1117
REMARK  518  A    between atoms: _1117  and  _1118
REMARK  519  A    between atoms: _1117  and  _1120
REMARK  520  A    between atoms: _1120  and  _1121
REMARK  521  A    between atoms: _1124  and  _1125
REMARK  522  A    between atoms: _1125  and  _1126
REMARK  523  A    between atoms: _1125  and  _1128
REMARK  524  A    between atoms: _1128  and  _1129
REMARK  525  A    between atoms: _1132  and  _1133
REMARK  526  A    between atoms: _1133  and  _1134
REMARK  527  A    between atoms: _1133  and  _1136
REMARK  528  A    between atoms: _1136  and  _1137
REMARK  529  A    between atoms: _1137  and  _1138
REMARK  530  A    between atoms: _1141  and  _1142
REMARK  531  A    between atoms: _1142  and  _1143
REMARK  532  A    between atoms: _1142  and  _1145
REMARK  533  A    between atoms: _1145  and  _1146
REMARK  534  A    between atoms: _1146  and  _1147
REMARK  535  A    between atoms: _1150  and  _1151
REMARK  536  A    between atoms: _1151  and  _1152
REMARK  537  A    between atoms: _1151  and  _1154
REMARK  538  A    between atoms: _1154  and  _1155
REMARK  539  A    between atoms: _1162  and  _1163
REMARK  540  A    between atoms: _1163  and  _1164
REMARK  541  A    between atoms: _1167  and  _1168
REMARK  542  A    between atoms: _1168  and  _1169
REMARK  543  A    between atoms: _1168  and  _1171
REMARK  544  A    between atoms: _1171  and  _1172
REMARK  545  A    between atoms: _1181  and  _1182
REMARK  546  A    between atoms: _1182  and  _1183
REMARK  547  A    between atoms: _1182  and  _1185
REMARK  548  A    between atoms: _1185  and  _1186
REMARK  549  A    between atoms: _1186  and  _1187
REMARK  550  A    between atoms: _1190  and  _1191
REMARK  551  A    between atoms: _1191  and  _1192
REMARK  552  A    between atoms: _1191  and  _1194
REMARK  553  A    between atoms: _1196  and  _1197
REMARK  554  A    between atoms: _1197  and  _1198
REMARK  555  A    between atoms: _1197  and  _1200
REMARK  556  A    between atoms: _1202  and  _1203
REMARK  557  A    between atoms: _1203  and  _1204
REMARK  558  A    between atoms: _1207  and  _1208
REMARK  559  A    between atoms: _1208  and  _1209
REMARK  560  A    between atoms: _1211  and  _1212
REMARK  561  A    between atoms: _1212  and  _1213
REMARK  562  A    between atoms: _1215  and  _1216
REMARK  563  A    between atoms: _1216  and  _1217
REMARK  564  A    between atoms: _1216  and  _1219
REMARK  565  A    between atoms: _1221  and  _1222
REMARK  566  A    between atoms: _1222  and  _1223
REMARK  567  A    between atoms: _1222  and  _1225
REMARK  568  A    between atoms: _1225  and  _1226
REMARK  569  A    between atoms: _1232  and  _1233
REMARK  570  A    between atoms: _1233  and  _1234
REMARK  571  A    between atoms: _1233  and  _1236
REMARK  572  A    between atoms: _1239  and  _1240
REMARK  573  A    between atoms: _1240  and  _1241
REMARK  574  A    between atoms: _1240  and  _1243
REMARK  575  A    between atoms: _1247  and  _1249
REMARK  576  A    between atoms: _1247  and  _1252
REMARK  577  A    between atoms: _1251  and  _1252
REMARK  578  A    between atoms: _1251  and  _1254
REMARK  579  A    between atoms: _1253  and  _1254
REMARK  580  A    between atoms: _1253  and  _1256
REMARK  581  A    between atoms: _1254  and  _1255
REMARK  582  A    between atoms: _1255  and  _1257
REMARK  583  A    between atoms: _1256  and  _1258
REMARK  584  A    between atoms: _1265  and  _1266
REMARK  585  A    between atoms: _1266  and  _1267
REMARK  586  A    between atoms: _1266  and  _1269
REMARK  587  A    between atoms: _1272  and  _1273
REMARK  588  A    between atoms: _1273  and  _1274
REMARK  589  A    between atoms: _1273  and  _1276
REMARK  590  A    between atoms: _1276  and  _1277
REMARK  591  A    between atoms: _1280  and  _1281
REMARK  592  A    between atoms: _1281  and  _1282
REMARK  593  A    between atoms: _1281  and  _1284
REMARK  594  A    between atoms: _1287  and  _1288
REMARK  595  A    between atoms: _1288  and  _1289
REMARK  596  A    between atoms: _1291  and  _1292
REMARK  597  A    between atoms: _1292  and  _1293
REMARK  598  A    between atoms: _1292  and  _1295
REMARK  599  A    between atoms: _1295  and  _1296
REMARK  600  A    between atoms: _1296  and  _1297
REMARK  601  A    between atoms: _1301  and  _1302
REMARK  602  A    between atoms: _1307  and  _1308
REMARK  603  A    between atoms: _1308  and  _1309
REMARK  604  A    between atoms: _1308  and  _1311
REMARK  605  A    between atoms: _1311  and  _1312
REMARK  606  A    between atoms: _1312  and  _1313
REMARK  607  A    between atoms: _1315  and  _1316
REMARK  608  A    between atoms: _1316  and  _1317
REMARK  609  A    between atoms: _1319  and  _1320
REMARK  610  A    between atoms: _1320  and  _1321
REMARK  611  A    between atoms: _1320  and  _1323
REMARK  612  A    between atoms: _1323  and  _1324
REMARK  613  A    between atoms: _1324  and  _1325
REMARK  614  A    between atoms: _1325  and  _1326
REMARK  615  A    between atoms: _1330  and  _1331
REMARK  616  A    between atoms: _1331  and  _1332
REMARK  617  A    between atoms: _1334  and  _1335
REMARK  618  A    between atoms: _1335  and  _1336
REMARK  619  A    between atoms: _1335  and  _1338
REMARK  620  A    between atoms: _1341  and  _1342
REMARK  621  A    between atoms: _1342  and  _1343
REMARK  622  A    between atoms: _1342  and  _1345
REMARK  623  A    between atoms: _1345  and  _1346
REMARK  624  A    between atoms: _1346  and  _1347
REMARK  625  A    between atoms: _1347  and  _1348
REMARK  626  A    between atoms: _1350  and  _1351
REMARK  627  A    between atoms: _1351  and  _1352
REMARK  628  A    between atoms: _1351  and  _1354
REMARK  629  A    between atoms: _1357  and  _1358
REMARK  630  A    between atoms: _1358  and  _1359
REMARK  631  A    between atoms: _1358  and  _1361
REMARK  632  A    between atoms: _1361  and  _1362
REMARK  633  A    between atoms: _1365  and  _1366
REMARK  634  A    between atoms: _1366  and  _1367
REMARK  635  A    between atoms: _1366  and  _1369
REMARK  636  A    between atoms: _1369  and  _1370
REMARK  637  A    between atoms: _1373  and  _1374
REMARK  638  A    between atoms: _1374  and  _1375
REMARK  639  A    between atoms: _1374  and  _1377
REMARK  640  A    between atoms: _1377  and  _1378
REMARK  641  A    between atoms: _1383  and  _1384
REMARK  642  A    between atoms: _1384  and  _1385
REMARK  643  A    between atoms: _1384  and  _1387
REMARK  644  A    between atoms: _1387  and  _1388
REMARK  645  A    between atoms: _1391  and  _1392
REMARK  646  A    between atoms: _1392  and  _1393
REMARK  647  A    between atoms: _1392  and  _1395
REMARK  648  A    between atoms: _1395  and  _1396
REMARK  649  A    between atoms: _1396  and  _1397
REMARK  650  A    between atoms: _1397  and  _1398
REMARK  651  A    between atoms: _1400  and  _1401
REMARK  652  A    between atoms: _1401  and  _1402
REMARK  653  A    between atoms: _1401  and  _1404
REMARK  654  A    between atoms: _1404  and  _1405
REMARK  655  A    between atoms: _1405  and  _1406
REMARK  656  A    between atoms: _1409  and  _1410
REMARK  657  A    between atoms: _1410  and  _1411
REMARK  658  A    between atoms: _1410  and  _1413
REMARK  659  A    between atoms: _1413  and  _1414
REMARK  660  A    between atoms: _1417  and  _1418
REMARK  661  A    between atoms: _1418  and  _1419
REMARK  662  A    between atoms: _1418  and  _1421
REMARK  663  A    between atoms: _1421  and  _1422
REMARK  664  A    between atoms: _1422  and  _1423
REMARK  665  A    between atoms: _1426  and  _1427
REMARK  666  A    between atoms: _1427  and  _1428
REMARK  667  A    between atoms: _1427  and  _1430
REMARK  668  A    between atoms: _1433  and  _1434
REMARK  669  A    between atoms: _1434  and  _1435
REMARK  670  A    between atoms: _1434  and  _1437
REMARK  671  A    between atoms: _1437  and  _1438
REMARK  672  A    between atoms: _1438  and  _1439
REMARK  673  A    between atoms: _1442  and  _1443
REMARK  674  A    between atoms: _1443  and  _1444
REMARK  675  A    between atoms: _1443  and  _1446
REMARK  676  A    between atoms: _1446  and  _1447
REMARK  677  A    between atoms: _1454  and  _1455
REMARK  678  A    between atoms: _1455  and  _1456
REMARK  679  A    between atoms: _1455  and  _1458
REMARK  680  A    between atoms: _1458  and  _1459
REMARK  681  A    between atoms: _1462  and  _1463
REMARK  682  A    between atoms: _1463  and  _1464
REMARK  683  A    between atoms: _1463  and  _1466
REMARK  684  A    between atoms: _1466  and  _1467
REMARK  685  A    between atoms: _1467  and  _1468
REMARK  686  A    between atoms: _1471  and  _1472
REMARK  687  A    between atoms: _1472  and  _1473
REMARK  688  A    between atoms: _1472  and  _1475
REMARK  689  A    between atoms: _1475  and  _1476
REMARK  690  A    between atoms: _1476  and  _1477
REMARK  691  A    between atoms: _1480  and  _1481
REMARK  692  A    between atoms: _1481  and  _1482
REMARK  693  A    between atoms: _1481  and  _1484
REMARK  694  A    between atoms: _1484  and  _1485
REMARK  695  A    between atoms: _1485  and  _1486
REMARK  696  A    between atoms: _1486  and  _1487
REMARK  697  A    between atoms: _1491  and  _1492
REMARK  698  A    between atoms: _1492  and  _1493
REMARK  699  A    between atoms: _1492  and  _1495
REMARK  700  A    between atoms: _1495  and  _1496
REMARK  701  A    between atoms: _1496  and  _1497
REMARK  702  A    between atoms: _1497  and  _1498
REMARK  703  A    between atoms: _1502  and  _1503
REMARK  704  A    between atoms: _1503  and  _1504
REMARK  705  A    between atoms: _1503  and  _1506
REMARK  706  A    between atoms: _1506  and  _1507
REMARK  707  A    between atoms: _1510  and  _1511
REMARK  708  A    between atoms: _1511  and  _1512
REMARK  709  A    between atoms: _1511  and  _1514
REMARK  710  A    between atoms: _1514  and  _1515
REMARK  711  A    between atoms: _1515  and  _1516
REMARK  712  A    between atoms: _1516  and  _1517
REMARK  713  A    between atoms: _1519  and  _1520
REMARK  714  A    between atoms: _1520  and  _1521
REMARK  715  A    between atoms: _1520  and  _1523
REMARK  716  A    between atoms: _1523  and  _1524
REMARK  717  A    between atoms: _1524  and  _1525
REMARK  718  A    between atoms: _1528  and  _1529
REMARK  719  A    between atoms: _1529  and  _1530
REMARK  720  A    between atoms: _1529  and  _1532
REMARK  721  A    between atoms: _1532  and  _1533
REMARK  722  A    between atoms: _1536  and  _1537
REMARK  723  A    between atoms: _1537  and  _1538
REMARK  724  A    between atoms: _1537  and  _1540
REMARK  725  A    between atoms: _1543  and  _1544
REMARK  726  A    between atoms: _1544  and  _1545
REMARK  727  A    between atoms: _1544  and  _1547
REMARK  728  A    between atoms: _1547  and  _1548
REMARK  729  A    between atoms: _1548  and  _1549
REMARK  730  A    between atoms: _1549  and  _1550
REMARK  731  A    between atoms: _1552  and  _1553
REMARK  732  A    between atoms: _1553  and  _1554
REMARK  733  A    between atoms: _1553  and  _1556
REMARK  734  A    between atoms: _1556  and  _1557
REMARK  735  A    between atoms: _1557  and  _1558
REMARK  736  A    between atoms: _1558  and  _1559
REMARK  737  A    between atoms: _1561  and  _1562
REMARK  738  A    between atoms: _1562  and  _1563
REMARK  739  A    between atoms: _1562  and  _1565
REMARK  740  A    between atoms: _1565  and  _1566
REMARK  741  A    between atoms: _1571  and  _1572
REMARK  742  A    between atoms: _1572  and  _1573
REMARK  743  A    between atoms: _1572  and  _1575
REMARK  744  A    between atoms: _1577  and  _1578
REMARK  745  A    between atoms: _1578  and  _1579
REMARK  746  A    between atoms: _1578  and  _1581
REMARK  747  A    between atoms: _1581  and  _1582
REMARK  748  A    between atoms: _1582  and  _1583
REMARK  749  A    between atoms: _1586  and  _1587
REMARK  750  A    between atoms: _1587  and  _1588
REMARK  751  A    between atoms: _1587  and  _1590
REMARK  752  A    between atoms: _1590  and  _1591
REMARK  753  A    between atoms: _1597  and  _1598
REMARK  754  A    between atoms: _1598  and  _1599
REMARK  755  A    between atoms: _1598  and  _1601
REMARK  756  A    between atoms: _1601  and  _1602
REMARK  757  A    between atoms: _1605  and  _1606
REMARK  758  A    between atoms: _1606  and  _1607
REMARK  759  A    between atoms: _1609  and  _1610
REMARK  760  A    between atoms: _1610  and  _1611
REMARK  761  A    between atoms: _1610  and  _1613
REMARK  762  A    between atoms: _1613  and  _1614
REMARK  763  A    between atoms: _1622  and  _1623
REMARK  764  A    between atoms: _1628  and  _1629
REMARK  765  A    between atoms: _1629  and  _1630
REMARK  766  A    between atoms: _1629  and  _1632
REMARK  767  A    between atoms: _1632  and  _1633
REMARK  768  A    between atoms: _1636  and  _1637
REMARK  769  A    between atoms: _1637  and  _1638
REMARK  770  A    between atoms: _1637  and  _1640
REMARK  771  A    between atoms: _1643  and  _1644
REMARK  772  A    between atoms: _1644  and  _1645
REMARK  773  A    between atoms: _1644  and  _1647
REMARK  774  A    between atoms: _1647  and  _1648
REMARK  775  A    between atoms: _1651  and  _1652
REMARK  776  A    between atoms: _1652  and  _1653
REMARK  777  A    between atoms: _1652  and  _1655
REMARK  778  A    between atoms: _1655  and  _1656
REMARK  779  A    between atoms: _1662  and  _1663
REMARK  780  A    between atoms: _1663  and  _1664
REMARK  781  A    between atoms: _1663  and  _1666
REMARK  782  A    between atoms: _1669  and  _1670
REMARK  783  A    between atoms: _1670  and  _1671
REMARK  784  A    between atoms: _1670  and  _1673
REMARK  785  A    between atoms: _1673  and  _1674
REMARK  786  A    between atoms: _1674  and  _1675
REMARK                            x       y       z     vdW  Elec       q    Type
REMARK                         _______ _______ _______ _____ _____    ______ ____
ROOT
ATOM      1  C   UNL     1       9.107  15.805   4.742  0.00  0.00    +0.000 C 
ENDROOT
TORSDOF 0
REMARK  Name = /Users/mlugowska/PhD/ML_residence_time_prediction/protein_files/5J64_protein.pdb
REMARK  786 active torsions:
REMARK  status: ('A' for Active; 'I' for Inactive)
REMARK    1  A    between atoms: _2  and  _3
REMARK    2  A    between atoms: _2  and  _5
REMARK    3  A    between atoms: _5  and  _6
REMARK    4  A    between atoms: _6  and  _7
REMARK    5  A    between atoms: _10  and  _11
REMARK    6  A    between atoms: _11  and  _12
REMARK    7  A    between atoms: _11  and  _14
REMARK    8  A    between atoms: _17  and  _18
REMARK    9  A    between atoms: _18  and  _19
REMARK   10  A    between atoms: _18  and  _21
REMARK   11  A    between atoms: _21  and  _22
REMARK   12  A    between atoms: _22  and  _23
REMARK   13  A    between atoms: _26  and  _27
REMARK   14  A    between atoms: _27  and  _28
REMARK   15  A    between atoms: _27  and  _30
REMARK   16  A    between atoms: _33  and  _34
REMARK   17  A    between atoms: _34  and  _35
REMARK   18  A    between atoms: _34  and  _37
REMARK   19  A    between atoms: _37  and  _38
REMARK   20  A    between atoms: _44  and  _45
REMARK   21  A    between atoms: _45  and  _46
REMARK   22  A    between atoms: _49  and  _50
REMARK   23  A    between atoms: _50  and  _51
REMARK   24  A    between atoms: _50  and  _53
REMARK   25  A    between atoms: _53  and  _54
REMARK   26  A    between atoms: _60  and  _61
REMARK   27  A    between atoms: _61  and  _62
REMARK   28  A    between atoms: _61  and  _64
REMARK   29  A    between atoms: _64  and  _65
REMARK   30  A    between atoms: _65  and  _66
REMARK   31  A    between atoms: _69  and  _70
REMARK   32  A    between atoms: _70  and  _71
REMARK   33  A    between atoms: _74  and  _75
REMARK   34  A    between atoms: _75  and  _76
REMARK   35  A    between atoms: _75  and  _78
REMARK   36  A    between atoms: _78  and  _79
REMARK   37  A    between atoms: _79  and  _80
REMARK   38  A    between atoms: _83  and  _84
REMARK   39  A    between atoms: _84  and  _85
REMARK   40  A    between atoms: _84  and  _87
REMARK   41  A    between atoms: _87  and  _88
REMARK   42  A    between atoms: _91  and  _92
REMARK   43  A    between atoms: _92  and  _93
REMARK   44  A    between atoms: _96  and  _97
REMARK   45  A    between atoms: _97  and  _98
REMARK   46  A    between atoms: _97  and  _100
REMARK   47  A    between atoms: _100  and  _101
REMARK   48  A    between atoms: _101  and  _102
REMARK   49  A    between atoms: _105  and  _106
REMARK   50  A    between atoms: _106  and  _107
REMARK   51  A    between atoms: _106  and  _109
REMARK   52  A    between atoms: _109  and  _110
REMARK   53  A    between atoms: _113  and  _114
REMARK   54  A    between atoms: _114  and  _115
REMARK   55  A    between atoms: _114  and  _117
REMARK   56  A    between atoms: _117  and  _118
REMARK   57  A    between atoms: _118  and  _119
REMARK   58  A    between atoms: _121  and  _122
REMARK   59  A    between atoms: _122  and  _123
REMARK   60  A    between atoms: _122  and  _125
REMARK   61  A    between atoms: _127  and  _128
REMARK   62  A    between atoms: _128  and  _129
REMARK   63  A    between atoms: _128  and  _131
REMARK   64  A    between atoms: _131  and  _132
REMARK   65  A    between atoms: _135  and  _136
REMARK   66  A    between atoms: _136  and  _137
REMARK   67  A    between atoms: _136  and  _139
REMARK   68  A    between atoms: _139  and  _140
REMARK   69  A    between atoms: _143  and  _144
REMARK   70  A    between atoms: _144  and  _145
REMARK   71  A    between atoms: _144  and  _147
REMARK   72  A    between atoms: _147  and  _148
REMARK   73  A    between atoms: _151  and  _152
REMARK   74  A    between atoms: _152  and  _153
REMARK   75  A    between atoms: _152  and  _155
REMARK   76  A    between atoms: _155  and  _156
REMARK   77  A    between atoms: _159  and  _160
REMARK   78  A    between atoms: _160  and  _161
REMARK   79  A    between atoms: _160  and  _163
REMARK   80  A    between atoms: _166  and  _167
REMARK   81  A    between atoms: _167  and  _170
REMARK   82  A    between atoms: _170  and  _171
REMARK   83  A    between atoms: _181  and  _183
REMARK   84  A    between atoms: _183  and  _184
REMARK   85  A    between atoms: _189  and  _194
REMARK   86  A    between atoms: _192  and  _195
REMARK   87  A    between atoms: _193  and  _194
REMARK   88  A    between atoms: _195  and  _196
REMARK   89  A    between atoms: _201  and  _202
REMARK   90  A    between atoms: _202  and  _203
REMARK   91  A    between atoms: _202  and  _205
REMARK   92  A    between atoms: _207  and  _208
REMARK   93  A    between atoms: _208  and  _209
REMARK   94  A    between atoms: _208  and  _211
REMARK   95  A    between atoms: _211  and  _212
REMARK   96  A    between atoms: _215  and  _216
REMARK   97  A    between atoms: _216  and  _217
REMARK   98  A    between atoms: _216  and  _219
REMARK   99  A    between atoms: _219  and  _220
REMARK  100  A    between atoms: _220  and  _221
REMARK  101  A    between atoms: _221  and  _222
REMARK  102  A    between atoms: _224  and  _225
REMARK  103  A    between atoms: _225  and  _226
REMARK  104  A    between atoms: _225  and  _228
REMARK  105  A    between atoms: _228  and  _229
REMARK  106  A    between atoms: _229  and  _230
REMARK  107  A    between atoms: _233  and  _234
REMARK  108  A    between atoms: _234  and  _235
REMARK  109  A    between atoms: _234  and  _237
REMARK  110  A    between atoms: _237  and  _238
REMARK  111  A    between atoms: _241  and  _242
REMARK  112  A    between atoms: _242  and  _243
REMARK  113  A    between atoms: _242  and  _245
REMARK  114  A    between atoms: _245  and  _246
REMARK  115  A    between atoms: _252  and  _253
REMARK  116  A    between atoms: _253  and  _254
REMARK  117  A    between atoms: _253  and  _256
REMARK  118  A    between atoms: _256  and  _257
REMARK  119  A    between atoms: _260  and  _261
REMARK  120  A    between atoms: _261  and  _262
REMARK  121  A    between atoms: _261  and  _264
REMARK  122  A    between atoms: _264  and  _265
REMARK  123  A    between atoms: _265  and  _266
REMARK  124  A    between atoms: _266  and  _267
REMARK  125  A    between atoms: _271  and  _272
REMARK  126  A    between atoms: _272  and  _273
REMARK  127  A    between atoms: _272  and  _275
REMARK  128  A    between atoms: _275  and  _276
REMARK  129  A    between atoms: _276  and  _277
REMARK  130  A    between atoms: _280  and  _281
REMARK  131  A    between atoms: _281  and  _282
REMARK  132  A    between atoms: _281  and  _284
REMARK  133  A    between atoms: _284  and  _285
REMARK  134  A    between atoms: _288  and  _289
REMARK  135  A    between atoms: _289  and  _292
REMARK  136  A    between atoms: _292  and  _293
REMARK  137  A    between atoms: _309  and  _310
REMARK  138  A    between atoms: _309  and  _312
REMARK  139  A    between atoms: _312  and  _313
REMARK  140  A    between atoms: _316  and  _317
REMARK  141  A    between atoms: _317  and  _318
REMARK  142  A    between atoms: _317  and  _320
REMARK  143  A    between atoms: _322  and  _323
REMARK  144  A    between atoms: _323  and  _324
REMARK  145  A    between atoms: _323  and  _326
REMARK  146  A    between atoms: _328  and  _329
REMARK  147  A    between atoms: _329  and  _330
REMARK  148  A    between atoms: _329  and  _332
REMARK  149  A    between atoms: _332  and  _333
REMARK  150  A    between atoms: _336  and  _337
REMARK  151  A    between atoms: _337  and  _338
REMARK  152  A    between atoms: _341  and  _342
REMARK  153  A    between atoms: _342  and  _343
REMARK  154  A    between atoms: _342  and  _345
REMARK  155  A    between atoms: _345  and  _346
REMARK  156  A    between atoms: _349  and  _350
REMARK  157  A    between atoms: _350  and  _351
REMARK  158  A    between atoms: _350  and  _353
REMARK  159  A    between atoms: _353  and  _354
REMARK  160  A    between atoms: _357  and  _358
REMARK  161  A    between atoms: _358  and  _359
REMARK  162  A    between atoms: _358  and  _361
REMARK  163  A    between atoms: _361  and  _362
REMARK  164  A    between atoms: _362  and  _363
REMARK  165  A    between atoms: _363  and  _364
REMARK  166  A    between atoms: _366  and  _367
REMARK  167  A    between atoms: _367  and  _368
REMARK  168  A    between atoms: _367  and  _370
REMARK  169  A    between atoms: _370  and  _371
REMARK  170  A    between atoms: _374  and  _375
REMARK  171  A    between atoms: _375  and  _376
REMARK  172  A    between atoms: _375  and  _378
REMARK  173  A    between atoms: _378  and  _379
REMARK  174  A    between atoms: _379  and  _380
REMARK  175  A    between atoms: _380  and  _381
REMARK  176  A    between atoms: _385  and  _386
REMARK  177  A    between atoms: _386  and  _387
REMARK  178  A    between atoms: _386  and  _389
REMARK  179  A    between atoms: _389  and  _390
REMARK  180  A    between atoms: _397  and  _398
REMARK  181  A    between atoms: _398  and  _399
REMARK  182  A    between atoms: _398  and  _401
REMARK  183  A    between atoms: _401  and  _402
REMARK  184  A    between atoms: _402  and  _403
REMARK  185  A    between atoms: _406  and  _407
REMARK  186  A    between atoms: _407  and  _408
REMARK  187  A    between atoms: _407  and  _410
REMARK  188  A    between atoms: _412  and  _413
REMARK  189  A    between atoms: _413  and  _414
REMARK  190  A    between atoms: _413  and  _416
REMARK  191  A    between atoms: _416  and  _417
REMARK  192  A    between atoms: _420  and  _421
REMARK  193  A    between atoms: _421  and  _422
REMARK  194  A    between atoms: _421  and  _424
REMARK  195  A    between atoms: _427  and  _428
REMARK  196  A    between atoms: _428  and  _429
REMARK  197  A    between atoms: _428  and  _431
REMARK  198  A    between atoms: _431  and  _432
REMARK  199  A    between atoms: _436  and  _437
REMARK  200  A    between atoms: _442  and  _443
REMARK  201  A    between atoms: _443  and  _444
REMARK  202  A    between atoms: _443  and  _446
REMARK  203  A    between atoms: _448  and  _449
REMARK  204  A    between atoms: _449  and  _450
REMARK  205  A    between atoms: _449  and  _452
REMARK  206  A    between atoms: _452  and  _453
REMARK  207  A    between atoms: _453  and  _454
REMARK  208  A    between atoms: _454  and  _455
REMARK  209  A    between atoms: _457  and  _458
REMARK  210  A    between atoms: _458  and  _459
REMARK  211  A    between atoms: _458  and  _461
REMARK  212  A    between atoms: _461  and  _462
REMARK  213  A    between atoms: _465  and  _466
REMARK  214  A    between atoms: _466  and  _467
REMARK  215  A    between atoms: _466  and  _469
REMARK  216  A    between atoms: _469  and  _470
REMARK  217  A    between atoms: _473  and  _474
REMARK  218  A    between atoms: _474  and  _475
REMARK  219  A    between atoms: _474  and  _477
REMARK  220  A    between atoms: _479  and  _480
REMARK  221  A    between atoms: _480  and  _481
REMARK  222  A    between atoms: _483  and  _484
REMARK  223  A    between atoms: _484  and  _485
REMARK  224  A    between atoms: _484  and  _487
REMARK  225  A    between atoms: _487  and  _488
REMARK  226  A    between atoms: _488  and  _489
REMARK  227  A    between atoms: _489  and  _490
REMARK  228  A    between atoms: _492  and  _493
REMARK  229  A    between atoms: _493  and  _494
REMARK  230  A    between atoms: _493  and  _496
REMARK  231  A    between atoms: _496  and  _497
REMARK  232  A    between atoms: _497  and  _498
REMARK  233  A    between atoms: _501  and  _502
REMARK  234  A    between atoms: _502  and  _503
REMARK  235  A    between atoms: _502  and  _505
REMARK  236  A    between atoms: _505  and  _506
REMARK  237  A    between atoms: _509  and  _510
REMARK  238  A    between atoms: _510  and  _511
REMARK  239  A    between atoms: _510  and  _513
REMARK  240  A    between atoms: _513  and  _514
REMARK  241  A    between atoms: _519  and  _520
REMARK  242  A    between atoms: _520  and  _521
REMARK  243  A    between atoms: _520  and  _523
REMARK  244  A    between atoms: _523  and  _524
REMARK  245  A    between atoms: _527  and  _528
REMARK  246  A    between atoms: _528  and  _529
REMARK  247  A    between atoms: _528  and  _531
REMARK  248  A    between atoms: _531  and  _532
REMARK  249  A    between atoms: _535  and  _536
REMARK  250  A    between atoms: _536  and  _537
REMARK  251  A    between atoms: _536  and  _539
REMARK  252  A    between atoms: _539  and  _540
REMARK  253  A    between atoms: _543  and  _544
REMARK  254  A    between atoms: _544  and  _545
REMARK  255  A    between atoms: _544  and  _547
REMARK  256  A    between atoms: _547  and  _548
REMARK  257  A    between atoms: _552  and  _553
REMARK  258  A    between atoms: _558  and  _559
REMARK  259  A    between atoms: _559  and  _560
REMARK  260  A    between atoms: _559  and  _562
REMARK  261  A    between atoms: _562  and  _563
REMARK  262  A    between atoms: _566  and  _567
REMARK  263  A    between atoms: _567  and  _568
REMARK  264  A    between atoms: _567  and  _570
REMARK  265  A    between atoms: _570  and  _571
REMARK  266  A    between atoms: _571  and  _572
REMARK  267  A    between atoms: _572  and  _573
REMARK  268  A    between atoms: _575  and  _576
REMARK  269  A    between atoms: _576  and  _577
REMARK  270  A    between atoms: _576  and  _579
REMARK  271  A    between atoms: _579  and  _580
REMARK  272  A    between atoms: _580  and  _581
REMARK  273  A    between atoms: _584  and  _585
REMARK  274  A    between atoms: _585  and  _586
REMARK  275  A    between atoms: _585  and  _588
REMARK  276  A    between atoms: _588  and  _589
REMARK  277  A    between atoms: _592  and  _593
REMARK  278  A    between atoms: _593  and  _594
REMARK  279  A    between atoms: _593  and  _596
REMARK  280  A    between atoms: _596  and  _597
REMARK  281  A    between atoms: _597  and  _598
REMARK  282  A    between atoms: _598  and  _599
REMARK  283  A    between atoms: _603  and  _604
REMARK  284  A    between atoms: _604  and  _605
REMARK  285  A    between atoms: _604  and  _607
REMARK  286  A    between atoms: _610  and  _611
REMARK  287  A    between atoms: _611  and  _612
REMARK  288  A    between atoms: _611  and  _614
REMARK  289  A    between atoms: _614  and  _615
REMARK  290  A    between atoms: _618  and  _619
REMARK  291  A    between atoms: _619  and  _620
REMARK  292  A    between atoms: _619  and  _622
REMARK  293  A    between atoms: _625  and  _626
REMARK  294  A    between atoms: _626  and  _627
REMARK  295  A    between atoms: _626  and  _629
REMARK  296  A    between atoms: _629  and  _630
REMARK  297  A    between atoms: _633  and  _634
REMARK  298  A    between atoms: _634  and  _635
REMARK  299  A    between atoms: _634  and  _637
REMARK  300  A    between atoms: _640  and  _641
REMARK  301  A    between atoms: _641  and  _642
REMARK  302  A    between atoms: _641  and  _644
REMARK  303  A    between atoms: _644  and  _645
REMARK  304  A    between atoms: _648  and  _649
REMARK  305  A    between atoms: _649  and  _650
REMARK  306  A    between atoms: _649  and  _652
REMARK  307  A    between atoms: _655  and  _656
REMARK  308  A    between atoms: _656  and  _657
REMARK  309  A    between atoms: _659  and  _660
REMARK  310  A    between atoms: _660  and  _661
REMARK  311  A    between atoms: _660  and  _663
REMARK  312  A    between atoms: _663  and  _664
REMARK  313  A    between atoms: _667  and  _668
REMARK  314  A    between atoms: _668  and  _669
REMARK  315  A    between atoms: _671  and  _672
REMARK  316  A    between atoms: _672  and  _673
REMARK  317  A    between atoms: _672  and  _675
REMARK  318  A    between atoms: _675  and  _676
REMARK  319  A    between atoms: _676  and  _677
REMARK  320  A    between atoms: _679  and  _680
REMARK  321  A    between atoms: _680  and  _681
REMARK  322  A    between atoms: _680  and  _683
REMARK  323  A    between atoms: _686  and  _687
REMARK  324  A    between atoms: _687  and  _688
REMARK  325  A    between atoms: _687  and  _690
REMARK  326  A    between atoms: _690  and  _691
REMARK  327  A    between atoms: _691  and  _692
REMARK  328  A    between atoms: _692  and  _693
REMARK  329  A    between atoms: _695  and  _696
REMARK  330  A    between atoms: _696  and  _697
REMARK  331  A    between atoms: _700  and  _701
REMARK  332  A    between atoms: _701  and  _702
REMARK  333  A    between atoms: _701  and  _704
REMARK  334  A    between atoms: _704  and  _705
REMARK  335  A    between atoms: _708  and  _709
REMARK  336  A    between atoms: _709  and  _710
REMARK  337  A    between atoms: _709  and  _712
REMARK  338  A    between atoms: _712  and  _713
REMARK  339  A    between atoms: _716  and  _717
REMARK  340  A    between atoms: _717  and  _720
REMARK  341  A    between atoms: _720  and  _721
REMARK  342  A    between atoms: _733  and  _734
REMARK  343  A    between atoms: _733  and  _735
REMARK  344  A    between atoms: _741  and  _744
REMARK  345  A    between atoms: _744  and  _745
REMARK  346  A    between atoms: _758  and  _759
REMARK  347  A    between atoms: _758  and  _761
REMARK  348  A    between atoms: _759  and  _760
REMARK  349  A    between atoms: _765  and  _766
REMARK  350  A    between atoms: _768  and  _769
REMARK  351  A    between atoms: _769  and  _770
REMARK  352  A    between atoms: _769  and  _772
REMARK  353  A    between atoms: _775  and  _776
REMARK  354  A    between atoms: _776  and  _777
REMARK  355  A    between atoms: _776  and  _779
REMARK  356  A    between atoms: _779  and  _780
REMARK  357  A    between atoms: _783  and  _784
REMARK  358  A    between atoms: _784  and  _785
REMARK  359  A    between atoms: _788  and  _789
REMARK  360  A    between atoms: _789  and  _790
REMARK  361  A    between atoms: _789  and  _792
REMARK  362  A    between atoms: _792  and  _793
REMARK  363  A    between atoms: _793  and  _794
REMARK  364  A    between atoms: _794  and  _795
REMARK  365  A    between atoms: _797  and  _798
REMARK  366  A    between atoms: _798  and  _799
REMARK  367  A    between atoms: _798  and  _801
REMARK  368  A    between atoms: _803  and  _804
REMARK  369  A    between atoms: _804  and  _805
REMARK  370  A    between atoms: _807  and  _808
REMARK  371  A    between atoms: _808  and  _809
REMARK  372  A    between atoms: _808  and  _811
REMARK  373  A    between atoms: _814  and  _815
REMARK  374  A    between atoms: _815  and  _816
REMARK  375  A    between atoms: _815  and  _818
REMARK  376  A    between atoms: _818  and  _819
REMARK  377  A    between atoms: _819  and  _820
REMARK  378  A    between atoms: _820  and  _821
REMARK  379  A    between atoms: _823  and  _824
REMARK  380  A    between atoms: _824  and  _825
REMARK  381  A    between atoms: _828  and  _829
REMARK  382  A    between atoms: _829  and  _830
REMARK  383  A    between atoms: _829  and  _832
REMARK  384  A    between atoms: _832  and  _833
REMARK  385  A    between atoms: _839  and  _840
REMARK  386  A    between atoms: _840  and  _841
REMARK  387  A    between atoms: _840  and  _843
REMARK  388  A    between atoms: _843  and  _844
REMARK  389  A    between atoms: _844  and  _845
REMARK  390  A    between atoms: _847  and  _848
REMARK  391  A    between atoms: _848  and  _849
REMARK  392  A    between atoms: _848  and  _851
REMARK  393  A    between atoms: _851  and  _852
REMARK  394  A    between atoms: _852  and  _853
REMARK  395  A    between atoms: _856  and  _857
REMARK  396  A    between atoms: _857  and  _858
REMARK  397  A    between atoms: _861  and  _862
REMARK  398  A    between atoms: _862  and  _863
REMARK  399  A    between atoms: _862  and  _865
REMARK  400  A    between atoms: _865  and  _866
REMARK  401  A    between atoms: _869  and  _870
REMARK  402  A    between atoms: _870  and  _871
REMARK  403  A    between atoms: _870  and  _873
REMARK  404  A    between atoms: _873  and  _874
REMARK  405  A    between atoms: _874  and  _875
REMARK  406  A    between atoms: _878  and  _879
REMARK  407  A    between atoms: _879  and  _880
REMARK  408  A    between atoms: _883  and  _884
REMARK  409  A    between atoms: _884  and  _885
REMARK  410  A    between atoms: _887  and  _888
REMARK  411  A    between atoms: _888  and  _889
REMARK  412  A    between atoms: _892  and  _893
REMARK  413  A    between atoms: _893  and  _894
REMARK  414  A    between atoms: _893  and  _896
REMARK  415  A    between atoms: _896  and  _897
REMARK  416  A    between atoms: _900  and  _901
REMARK  417  A    between atoms: _901  and  _902
REMARK  418  A    between atoms: _901  and  _904
REMARK  419  A    between atoms: _904  and  _905
REMARK  420  A    between atoms: _908  and  _909
REMARK  421  A    between atoms: _909  and  _910
REMARK  422  A    between atoms: _909  and  _912
REMARK  423  A    between atoms: _914  and  _915
REMARK  424  A    between atoms: _915  and  _916
REMARK  425  A    between atoms: _915  and  _918
REMARK  426  A    between atoms: _918  and  _919
REMARK  427  A    between atoms: _919  and  _920
REMARK  428  A    between atoms: _922  and  _923
REMARK  429  A    between atoms: _923  and  _924
REMARK  430  A    between atoms: _923  and  _926
REMARK  431  A    between atoms: _926  and  _927
REMARK  432  A    between atoms: _930  and  _931
REMARK  433  A    between atoms: _931  and  _932
REMARK  434  A    between atoms: _934  and  _935
REMARK  435  A    between atoms: _935  and  _936
REMARK  436  A    between atoms: _935  and  _938
REMARK  437  A    between atoms: _938  and  _939
REMARK  438  A    between atoms: _939  and  _940
REMARK  439  A    between atoms: _943  and  _944
REMARK  440  A    between atoms: _944  and  _945
REMARK  441  A    between atoms: _944  and  _947
REMARK  442  A    between atoms: _947  and  _948
REMARK  443  A    between atoms: _954  and  _955
REMARK  444  A    between atoms: _955  and  _956
REMARK  445  A    between atoms: _958  and  _959
REMARK  446  A    between atoms: _959  and  _960
REMARK  447  A    between atoms: _959  and  _962
REMARK  448  A    between atoms: _965  and  _966
REMARK  449  A    between atoms: _966  and  _967
REMARK  450  A    between atoms: _969  and  _970
REMARK  451  A    between atoms: _970  and  _971
REMARK  452  A    between atoms: _970  and  _973
REMARK  453  A    between atoms: _973  and  _974
REMARK  454  A    between atoms: _980  and  _981
REMARK  455  A    between atoms: _981  and  _982
REMARK  456  A    between atoms: _981  and  _984
REMARK  457  A    between atoms: _984  and  _985
REMARK  458  A    between atoms: _992  and  _993
REMARK  459  A    between atoms: _993  and  _994
REMARK  460  A    between atoms: _993  and  _996
REMARK  461  A    between atoms: _998  and  _999
REMARK  462  A    between atoms: _999  and  _1000
REMARK  463  A    between atoms: _1003  and  _1004
REMARK  464  A    between atoms: _1004  and  _1005
REMARK  465  A    between atoms: _1004  and  _1007
REMARK  466  A    between atoms: _1007  and  _1008
REMARK  467  A    between atoms: _1015  and  _1016
REMARK  468  A    between atoms: _1016  and  _1017
REMARK  469  A    between atoms: _1016  and  _1019
REMARK  470  A    between atoms: _1019  and  _1020
REMARK  471  A    between atoms: _1023  and  _1024
REMARK  472  A    between atoms: _1024  and  _1025
REMARK  473  A    between atoms: _1024  and  _1027
REMARK  474  A    between atoms: _1030  and  _1031
REMARK  475  A    between atoms: _1031  and  _1032
REMARK  476  A    between atoms: _1035  and  _1036
REMARK  477  A    between atoms: _1036  and  _1037
REMARK  478  A    between atoms: _1036  and  _1039
REMARK  479  A    between atoms: _1039  and  _1040
REMARK  480  A    between atoms: _1040  and  _1041
REMARK  481  A    between atoms: _1044  and  _1045
REMARK  482  A    between atoms: _1045  and  _1046
REMARK  483  A    between atoms: _1045  and  _1048
REMARK  484  A    between atoms: _1048  and  _1049
REMARK  485  A    between atoms: _1049  and  _1050
REMARK  486  A    between atoms: _1050  and  _1051
REMARK  487  A    between atoms: _1053  and  _1054
REMARK  488  A    between atoms: _1054  and  _1055
REMARK  489  A    between atoms: _1054  and  _1057
REMARK  490  A    between atoms: _1060  and  _1061
REMARK  491  A    between atoms: _1061  and  _1062
REMARK  492  A    between atoms: _1061  and  _1064
REMARK  493  A    between atoms: _1067  and  _1068
REMARK  494  A    between atoms: _1068  and  _1069
REMARK  495  A    between atoms: _1068  and  _1071
REMARK  496  A    between atoms: _1074  and  _1075
REMARK  497  A    between atoms: _1075  and  _1076
REMARK  498  A    between atoms: _1075  and  _1078
REMARK  499  A    between atoms: _1078  and  _1079
REMARK  500  A    between atoms: _1082  and  _1083
REMARK  501  A    between atoms: _1083  and  _1084
REMARK  502  A    between atoms: _1083  and  _1086
REMARK  503  A    between atoms: _1089  and  _1090
REMARK  504  A    between atoms: _1090  and  _1091
REMARK  505  A    between atoms: _1090  and  _1093
REMARK  506  A    between atoms: _1093  and  _1094
REMARK  507  A    between atoms: _1094  and  _1095
REMARK  508  A    between atoms: _1095  and  _1096
REMARK  509  A    between atoms: _1098  and  _1099
REMARK  510  A    between atoms: _1099  and  _1100
REMARK  511  A    between atoms: _1099  and  _1102
REMARK  512  A    between atoms: _1102  and  _1103
REMARK  513  A    between atoms: _1108  and  _1109
REMARK  514  A    between atoms: _1109  and  _1110
REMARK  515  A    between atoms: _1109  and  _1112
REMARK  516  A    between atoms: _1112  and  _1113
REMARK  517  A    between atoms: _1116  and  _1117
REMARK  518  A    between atoms: _1117  and  _1118
REMARK  519  A    between atoms: _1117  and  _1120
REMARK  520  A    between atoms: _1120  and  _1121
REMARK  521  A    between atoms: _1124  and  _1125
REMARK  522  A    between atoms: _1125  and  _1126
REMARK  523  A    between atoms: _1125  and  _1128
REMARK  524  A    between atoms: _1128  and  _1129
REMARK  525  A    between atoms: _1132  and  _1133
REMARK  526  A    between atoms: _1133  and  _1134
REMARK  527  A    between atoms: _1133  and  _1136
REMARK  528  A    between atoms: _1136  and  _1137
REMARK  529  A    between atoms: _1137  and  _1138
REMARK  530  A    between atoms: _1141  and  _1142
REMARK  531  A    between atoms: _1142  and  _1143
REMARK  532  A    between atoms: _1142  and  _1145
REMARK  533  A    between atoms: _1145  and  _1146
REMARK  534  A    between atoms: _1146  and  _1147
REMARK  535  A    between atoms: _1150  and  _1151
REMARK  536  A    between atoms: _1151  and  _1152
REMARK  537  A    between atoms: _1151  and  _1154
REMARK  538  A    between atoms: _1154  and  _1155
REMARK  539  A    between atoms: _1162  and  _1163
REMARK  540  A    between atoms: _1163  and  _1164
REMARK  541  A    between atoms: _1167  and  _1168
REMARK  542  A    between atoms: _1168  and  _1169
REMARK  543  A    between atoms: _1168  and  _1171
REMARK  544  A    between atoms: _1171  and  _1172
REMARK  545  A    between atoms: _1181  and  _1182
REMARK  546  A    between atoms: _1182  and  _1183
REMARK  547  A    between atoms: _1182  and  _1185
REMARK  548  A    between atoms: _1185  and  _1186
REMARK  549  A    between atoms: _1186  and  _1187
REMARK  550  A    between atoms: _1190  and  _1191
REMARK  551  A    between atoms: _1191  and  _1192
REMARK  552  A    between atoms: _1191  and  _1194
REMARK  553  A    between atoms: _1196  and  _1197
REMARK  554  A    between atoms: _1197  and  _1198
REMARK  555  A    between atoms: _1197  and  _1200
REMARK  556  A    between atoms: _1202  and  _1203
REMARK  557  A    between atoms: _1203  and  _1204
REMARK  558  A    between atoms: _1207  and  _1208
REMARK  559  A    between atoms: _1208  and  _1209
REMARK  560  A    between atoms: _1211  and  _1212
REMARK  561  A    between atoms: _1212  and  _1213
REMARK  562  A    between atoms: _1215  and  _1216
REMARK  563  A    between atoms: _1216  and  _1217
REMARK  564  A    between atoms: _1216  and  _1219
REMARK  565  A    between atoms: _1221  and  _1222
REMARK  566  A    between atoms: _1222  and  _1223
REMARK  567  A    between atoms: _1222  and  _1225
REMARK  568  A    between atoms: _1225  and  _1226
REMARK  569  A    between atoms: _1232  and  _1233
REMARK  570  A    between atoms: _1233  and  _1234
REMARK  571  A    between atoms: _1233  and  _1236
REMARK  572  A    between atoms: _1239  and  _1240
REMARK  573  A    between atoms: _1240  and  _1241
REMARK  574  A    between atoms: _1240  and  _1243
REMARK  575  A    between atoms: _1247  and  _1249
REMARK  576  A    between atoms: _1247  and  _1252
REMARK  577  A    between atoms: _1251  and  _1252
REMARK  578  A    between atoms: _1251  and  _1254
REMARK  579  A    between atoms: _1253  and  _1254
REMARK  580  A    between atoms: _1253  and  _1256
REMARK  581  A    between atoms: _1254  and  _1255
REMARK  582  A    between atoms: _1255  and  _1257
REMARK  583  A    between atoms: _1256  and  _1258
REMARK  584  A    between atoms: _1265  and  _1266
REMARK  585  A    between atoms: _1266  and  _1267
REMARK  586  A    between atoms: _1266  and  _1269
REMARK  587  A    between atoms: _1272  and  _1273
REMARK  588  A    between atoms: _1273  and  _1274
REMARK  589  A    between atoms: _1273  and  _1276
REMARK  590  A    between atoms: _1276  and  _1277
REMARK  591  A    between atoms: _1280  and  _1281
REMARK  592  A    between atoms: _1281  and  _1282
REMARK  593  A    between atoms: _1281  and  _1284
REMARK  594  A    between atoms: _1287  and  _1288
REMARK  595  A    between atoms: _1288  and  _1289
REMARK  596  A    between atoms: _1291  and  _1292
REMARK  597  A    between atoms: _1292  and  _1293
REMARK  598  A    between atoms: _1292  and  _1295
REMARK  599  A    between atoms: _1295  and  _1296
REMARK  600  A    between atoms: _1296  and  _1297
REMARK  601  A    between atoms: _1301  and  _1302
REMARK  602  A    between atoms: _1307  and  _1308
REMARK  603  A    between atoms: _1308  and  _1309
REMARK  604  A    between atoms: _1308  and  _1311
REMARK  605  A    between atoms: _1311  and  _1312
REMARK  606  A    between atoms: _1312  and  _1313
REMARK  607  A    between atoms: _1315  and  _1316
REMARK  608  A    between atoms: _1316  and  _1317
REMARK  609  A    between atoms: _1319  and  _1320
REMARK  610  A    between atoms: _1320  and  _1321
REMARK  611  A    between atoms: _1320  and  _1323
REMARK  612  A    between atoms: _1323  and  _1324
REMARK  613  A    between atoms: _1324  and  _1325
REMARK  614  A    between atoms: _1325  and  _1326
REMARK  615  A    between atoms: _1330  and  _1331
REMARK  616  A    between atoms: _1331  and  _1332
REMARK  617  A    between atoms: _1334  and  _1335
REMARK  618  A    between atoms: _1335  and  _1336
REMARK  619  A    between atoms: _1335  and  _1338
REMARK  620  A    between atoms: _1341  and  _1342
REMARK  621  A    between atoms: _1342  and  _1343
REMARK  622  A    between atoms: _1342  and  _1345
REMARK  623  A    between atoms: _1345  and  _1346
REMARK  624  A    between atoms: _1346  and  _1347
REMARK  625  A    between atoms: _1347  and  _1348
REMARK  626  A    between atoms: _1350  and  _1351
REMARK  627  A    between atoms: _1351  and  _1352
REMARK  628  A    between atoms: _1351  and  _1354
REMARK  629  A    between atoms: _1357  and  _1358
REMARK  630  A    between atoms: _1358  and  _1359
REMARK  631  A    between atoms: _1358  and  _1361
REMARK  632  A    between atoms: _1361  and  _1362
REMARK  633  A    between atoms: _1365  and  _1366
REMARK  634  A    between atoms: _1366  and  _1367
REMARK  635  A    between atoms: _1366  and  _1369
REMARK  636  A    between atoms: _1369  and  _1370
REMARK  637  A    between atoms: _1373  and  _1374
REMARK  638  A    between atoms: _1374  and  _1375
REMARK  639  A    between atoms: _1374  and  _1377
REMARK  640  A    between atoms: _1377  and  _1378
REMARK  641  A    between atoms: _1383  and  _1384
REMARK  642  A    between atoms: _1384  and  _1385
REMARK  643  A    between atoms: _1384  and  _1387
REMARK  644  A    between atoms: _1387  and  _1388
REMARK  645  A    between atoms: _1391  and  _1392
REMARK  646  A    between atoms: _1392  and  _1393
REMARK  647  A    between atoms: _1392  and  _1395
REMARK  648  A    between atoms: _1395  and  _1396
REMARK  649  A    between atoms: _1396  and  _1397
REMARK  650  A    between atoms: _1397  and  _1398
REMARK  651  A    between atoms: _1400  and  _1401
REMARK  652  A    between atoms: _1401  and  _1402
REMARK  653  A    between atoms: _1401  and  _1404
REMARK  654  A    between atoms: _1404  and  _1405
REMARK  655  A    between atoms: _1405  and  _1406
REMARK  656  A    between atoms: _1409  and  _1410
REMARK  657  A    between atoms: _1410  and  _1411
REMARK  658  A    between atoms: _1410  and  _1413
REMARK  659  A    between atoms: _1413  and  _1414
REMARK  660  A    between atoms: _1417  and  _1418
REMARK  661  A    between atoms: _1418  and  _1419
REMARK  662  A    between atoms: _1418  and  _1421
REMARK  663  A    between atoms: _1421  and  _1422
REMARK  664  A    between atoms: _1422  and  _1423
REMARK  665  A    between atoms: _1426  and  _1427
REMARK  666  A    between atoms: _1427  and  _1428
REMARK  667  A    between atoms: _1427  and  _1430
REMARK  668  A    between atoms: _1433  and  _1434
REMARK  669  A    between atoms: _1434  and  _1435
REMARK  670  A    between atoms: _1434  and  _1437
REMARK  671  A    between atoms: _1437  and  _1438
REMARK  672  A    between atoms: _1438  and  _1439
REMARK  673  A    between atoms: _1442  and  _1443
REMARK  674  A    between atoms: _1443  and  _1444
REMARK  675  A    between atoms: _1443  and  _1446
REMARK  676  A    between atoms: _1446  and  _1447
REMARK  677  A    between atoms: _1454  and  _1455
REMARK  678  A    between atoms: _1455  and  _1456
REMARK  679  A    between atoms: _1455  and  _1458
REMARK  680  A    between atoms: _1458  and  _1459
REMARK  681  A    between atoms: _1462  and  _1463
REMARK  682  A    between atoms: _1463  and  _1464
REMARK  683  A    between atoms: _1463  and  _1466
REMARK  684  A    between atoms: _1466  and  _1467
REMARK  685  A    between atoms: _1467  and  _1468
REMARK  686  A    between atoms: _1471  and  _1472
REMARK  687  A    between atoms: _1472  and  _1473
REMARK  688  A    between atoms: _1472  and  _1475
REMARK  689  A    between atoms: _1475  and  _1476
REMARK  690  A    between atoms: _1476  and  _1477
REMARK  691  A    between atoms: _1480  and  _1481
REMARK  692  A    between atoms: _1481  and  _1482
REMARK  693  A    between atoms: _1481  and  _1484
REMARK  694  A    between atoms: _1484  and  _1485
REMARK  695  A    between atoms: _1485  and  _1486
REMARK  696  A    between atoms: _1486  and  _1487
REMARK  697  A    between atoms: _1491  and  _1492
REMARK  698  A    between atoms: _1492  and  _1493
REMARK  699  A    between atoms: _1492  and  _1495
REMARK  700  A    between atoms: _1495  and  _1496
REMARK  701  A    between atoms: _1496  and  _1497
REMARK  702  A    between atoms: _1497  and  _1498
REMARK  703  A    between atoms: _1502  and  _1503
REMARK  704  A    between atoms: _1503  and  _1504
REMARK  705  A    between atoms: _1503  and  _1506
REMARK  706  A    between atoms: _1506  and  _1507
REMARK  707  A    between atoms: _1510  and  _1511
REMARK  708  A    between atoms: _1511  and  _1512
REMARK  709  A    between atoms: _1511  and  _1514
REMARK  710  A    between atoms: _1514  and  _1515
REMARK  711  A    between atoms: _1515  and  _1516
REMARK  712  A    between atoms: _1516  and  _1517
REMARK  713  A    between atoms: _1519  and  _1520
REMARK  714  A    between atoms: _1520  and  _1521
REMARK  715  A    between atoms: _1520  and  _1523
REMARK  716  A    between atoms: _1523  and  _1524
REMARK  717  A    between atoms: _1524  and  _1525
REMARK  718  A    between atoms: _1528  and  _1529
REMARK  719  A    between atoms: _1529  and  _1530
REMARK  720  A    between atoms: _1529  and  _1532
REMARK  721  A    between atoms: _1532  and  _1533
REMARK  722  A    between atoms: _1536  and  _1537
REMARK  723  A    between atoms: _1537  and  _1538
REMARK  724  A    between atoms: _1537  and  _1540
REMARK  725  A    between atoms: _1543  and  _1544
REMARK  726  A    between atoms: _1544  and  _1545
REMARK  727  A    between atoms: _1544  and  _1547
REMARK  728  A    between atoms: _1547  and  _1548
REMARK  729  A    between atoms: _1548  and  _1549
REMARK  730  A    between atoms: _1549  and  _1550
REMARK  731  A    between atoms: _1552  and  _1553
REMARK  732  A    between atoms: _1553  and  _1554
REMARK  733  A    between atoms: _1553  and  _1556
REMARK  734  A    between atoms: _1556  and  _1557
REMARK  735  A    between atoms: _1557  and  _1558
REMARK  736  A    between atoms: _1558  and  _1559
REMARK  737  A    between atoms: _1561  and  _1562
REMARK  738  A    between atoms: _1562  and  _1563
REMARK  739  A    between atoms: _1562  and  _1565
REMARK  740  A    between atoms: _1565  and  _1566
REMARK  741  A    between atoms: _1571  and  _1572
REMARK  742  A    between atoms: _1572  and  _1573
REMARK  743  A    between atoms: _1572  and  _1575
REMARK  744  A    between atoms: _1577  and  _1578
REMARK  745  A    between atoms: _1578  and  _1579
REMARK  746  A    between atoms: _1578  and  _1581
REMARK  747  A    between atoms: _1581  and  _1582
REMARK  748  A    between atoms: _1582  and  _1583
REMARK  749  A    between atoms: _1586  and  _1587
REMARK  750  A    between atoms: _1587  and  _1588
REMARK  751  A    between atoms: _1587  and  _1590
REMARK  752  A    between atoms: _1590  and  _1591
REMARK  753  A    between atoms: _1597  and  _1598
REMARK  754  A    between atoms: _1598  and  _1599
REMARK  755  A    between atoms: _1598  and  _1601
REMARK  756  A    between atoms: _1601  and  _1602
REMARK  757  A    between atoms: _1605  and  _1606
REMARK  758  A    between atoms: _1606  and  _1607
REMARK  759  A    between atoms: _1609  and  _1610
REMARK  760  A    between atoms: _1610  and  _1611
REMARK  761  A    between atoms: _1610  and  _1613
REMARK  762  A    between atoms: _1613  and  _1614
REMARK  763  A    between atoms: _1622  and  _1623
REMARK  764  A    between atoms: _1628  and  _1629
REMARK  765  A    between atoms: _1629  and  _1630
REMARK  766  A    between atoms: _1629  and  _1632
REMARK  767  A    between atoms: _1632  and  _1633
REMARK  768  A    between atoms: _1636  and  _1637
REMARK  769  A    between atoms: _1637  and  _1638
REMARK  770  A    between atoms: _1637  and  _1640
REMARK  771  A    between atoms: _1643  and  _1644
REMARK  772  A    between atoms: _1644  and  _1645
REMARK  773  A    between atoms: _1644  and  _1647
REMARK  774  A    between atoms: _1647  and  _1648
REMARK  775  A    between atoms: _1651  and  _1652
REMARK  776  A    between atoms: _1652  and  _1653
REMARK  777  A    between atoms: _1652  and  _1655
REMARK  778  A    between atoms: _1655  and  _1656
REMARK  779  A    between atoms: _1662  and  _1663
REMARK  780  A    between atoms: _1663  and  _1664
REMARK  781  A    between atoms: _1663  and  _1666
REMARK  782  A    between atoms: _1669  and  _1670
REMARK  783  A    between atoms: _1670  and  _1671
REMARK  784  A    between atoms: _1670  and  _1673
REMARK  785  A    between atoms: _1673  and  _1674
REMARK  786  A    between atoms: _1674  and  _1675
REMARK                            x       y       z     vdW  Elec       q    Type
REMARK                         _______ _______ _______ _____ _____    ______ ____
ROOT
ATOM      1  C   UNL     1       6.094  13.458   5.411  0.00  0.00    +0.073 C 
ATOM      2  C   UNL     1       5.885  13.042   5.476  0.00  0.00    +0.207 A 
ATOM      3  O   UNL     1       4.870  12.153   5.698  0.00  0.00    -0.288 OA
ATOM      4  O   UNL     1       5.802  11.245   4.576  0.00  0.00    -0.288 OA
ATOM      5  C   UNL     1       6.528  12.400   4.630  0.00  0.00    +0.208 A 
ATOM      6  C   UNL     1       6.829  12.766   4.500  0.00  0.00    +0.076 C 
ENDROOT
BRANCH   1   7
ATOM      7  C   UNL     1       5.976  14.213   6.214  0.00  0.00    +0.008 C 
BRANCH   7   9
ATOM      8  C   UNL     1       7.995  14.828   5.016  0.00  0.00    +0.000 C 
ATOM      9  C   UNL     1       6.851  14.626   5.471  0.00  0.00    +0.000 C 
ATOM     10  C   UNL     1       7.029  15.093   5.988  0.00  0.00    +0.000 C 
ENDBRANCH   7   9
ENDBRANCH   1   7
BRANCH   6  11
ATOM     11  C   UNL     1       7.716  12.495   3.927  0.00  0.00    +0.030 C 
BRANCH  11  12
ATOM     12  C   UNL     1       7.899  13.635   4.310  0.00  0.00    -0.043 C 
ATOM     13  C   UNL     1       8.048  14.746   4.767  0.00  0.00    +0.026 C 
ATOM     14  C   UNL     1       8.471  13.661   4.005  0.00  0.00    -0.009 C 
ENDBRANCH  11  12
ENDBRANCH   6  11
TORSDOF 4
REMARK  Name = /Users/mlugowska/PhD/ML_residence_time_prediction/protein_files/5J64_protein.pdb
REMARK  786 active torsions:
REMARK  status: ('A' for Active; 'I' for Inactive)
REMARK    1  A    between atoms: _2  and  _3
REMARK    2  A    between atoms: _2  and  _5
REMARK    3  A    between atoms: _5  and  _6
REMARK    4  A    between atoms: _6  and  _7
REMARK    5  A    between atoms: _10  and  _11
REMARK    6  A    between atoms: _11  and  _12
REMARK    7  A    between atoms: _11  and  _14
REMARK    8  A    between atoms: _17  and  _18
REMARK    9  A    between atoms: _18  and  _19
REMARK   10  A    between atoms: _18  and  _21
REMARK   11  A    between atoms: _21  and  _22
REMARK   12  A    between atoms: _22  and  _23
REMARK   13  A    between atoms: _26  and  _27
REMARK   14  A    between atoms: _27  and  _28
REMARK   15  A    between atoms: _27  and  _30
REMARK   16  A    between atoms: _33  and  _34
REMARK   17  A    between atoms: _34  and  _35
REMARK   18  A    between atoms: _34  and  _37
REMARK   19  A    between atoms: _37  and  _38
REMARK   20  A    between atoms: _44  and  _45
REMARK   21  A    between atoms: _45  and  _46
REMARK   22  A    between atoms: _49  and  _50
REMARK   23  A    between atoms: _50  and  _51
REMARK   24  A    between atoms: _50  and  _53
REMARK   25  A    between atoms: _53  and  _54
REMARK   26  A    between atoms: _60  and  _61
REMARK   27  A    between atoms: _61  and  _62
REMARK   28  A    between atoms: _61  and  _64
REMARK   29  A    between atoms: _64  and  _65
REMARK   30  A    between atoms: _65  and  _66
REMARK   31  A    between atoms: _69  and  _70
REMARK   32  A    between atoms: _70  and  _71
REMARK   33  A    between atoms: _74  and  _75
REMARK   34  A    between atoms: _75  and  _76
REMARK   35  A    between atoms: _75  and  _78
REMARK   36  A    between atoms: _78  and  _79
REMARK   37  A    between atoms: _79  and  _80
REMARK   38  A    between atoms: _83  and  _84
REMARK   39  A    between atoms: _84  and  _85
REMARK   40  A    between atoms: _84  and  _87
REMARK   41  A    between atoms: _87  and  _88
REMARK   42  A    between atoms: _91  and  _92
REMARK   43  A    between atoms: _92  and  _93
REMARK   44  A    between atoms: _96  and  _97
REMARK   45  A    between atoms: _97  and  _98
REMARK   46  A    between atoms: _97  and  _100
REMARK   47  A    between atoms: _100  and  _101
REMARK   48  A    between atoms: _101  and  _102
REMARK   49  A    between atoms: _105  and  _106
REMARK   50  A    between atoms: _106  and  _107
REMARK   51  A    between atoms: _106  and  _109
REMARK   52  A    between atoms: _109  and  _110
REMARK   53  A    between atoms: _113  and  _114
REMARK   54  A    between atoms: _114  and  _115
REMARK   55  A    between atoms: _114  and  _117
REMARK   56  A    between atoms: _117  and  _118
REMARK   57  A    between atoms: _118  and  _119
REMARK   58  A    between atoms: _121  and  _122
REMARK   59  A    between atoms: _122  and  _123
REMARK   60  A    between atoms: _122  and  _125
REMARK   61  A    between atoms: _127  and  _128
REMARK   62  A    between atoms: _128  and  _129
REMARK   63  A    between atoms: _128  and  _131
REMARK   64  A    between atoms: _131  and  _132
REMARK   65  A    between atoms: _135  and  _136
REMARK   66  A    between atoms: _136  and  _137
REMARK   67  A    between atoms: _136  and  _139
REMARK   68  A    between atoms: _139  and  _140
REMARK   69  A    between atoms: _143  and  _144
REMARK   70  A    between atoms: _144  and  _145
REMARK   71  A    between atoms: _144  and  _147
REMARK   72  A    between atoms: _147  and  _148
REMARK   73  A    between atoms: _151  and  _152
REMARK   74  A    between atoms: _152  and  _153
REMARK   75  A    between atoms: _152  and  _155
REMARK   76  A    between atoms: _155  and  _156
REMARK   77  A    between atoms: _159  and  _160
REMARK   78  A    between atoms: _160  and  _161
REMARK   79  A    between atoms: _160  and  _163
REMARK   80  A    between atoms: _166  and  _167
REMARK   81  A    between atoms: _167  and  _170
REMARK   82  A    between atoms: _170  and  _171
REMARK   83  A    between atoms: _181  and  _183
REMARK   84  A    between atoms: _183  and  _184
REMARK   85  A    between atoms: _189  and  _194
REMARK   86  A    between atoms: _192  and  _195
REMARK   87  A    between atoms: _193  and  _194
REMARK   88  A    between atoms: _195  and  _196
REMARK   89  A    between atoms: _201  and  _202
REMARK   90  A    between atoms: _202  and  _203
REMARK   91  A    between atoms: _202  and  _205
REMARK   92  A    between atoms: _207  and  _208
REMARK   93  A    between atoms: _208  and  _209
REMARK   94  A    between atoms: _208  and  _211
REMARK   95  A    between atoms: _211  and  _212
REMARK   96  A    between atoms: _215  and  _216
REMARK   97  A    between atoms: _216  and  _217
REMARK   98  A    between atoms: _216  and  _219
REMARK   99  A    between atoms: _219  and  _220
REMARK  100  A    between atoms: _220  and  _221
REMARK  101  A    between atoms: _221  and  _222
REMARK  102  A    between atoms: _224  and  _225
REMARK  103  A    between atoms: _225  and  _226
REMARK  104  A    between atoms: _225  and  _228
REMARK  105  A    between atoms: _228  and  _229
REMARK  106  A    between atoms: _229  and  _230
REMARK  107  A    between atoms: _233  and  _234
REMARK  108  A    between atoms: _234  and  _235
REMARK  109  A    between atoms: _234  and  _237
REMARK  110  A    between atoms: _237  and  _238
REMARK  111  A    between atoms: _241  and  _242
REMARK  112  A    between atoms: _242  and  _243
REMARK  113  A    between atoms: _242  and  _245
REMARK  114  A    between atoms: _245  and  _246
REMARK  115  A    between atoms: _252  and  _253
REMARK  116  A    between atoms: _253  and  _254
REMARK  117  A    between atoms: _253  and  _256
REMARK  118  A    between atoms: _256  and  _257
REMARK  119  A    between atoms: _260  and  _261
REMARK  120  A    between atoms: _261  and  _262
REMARK  121  A    between atoms: _261  and  _264
REMARK  122  A    between atoms: _264  and  _265
REMARK  123  A    between atoms: _265  and  _266
REMARK  124  A    between atoms: _266  and  _267
REMARK  125  A    between atoms: _271  and  _272
REMARK  126  A    between atoms: _272  and  _273
REMARK  127  A    between atoms: _272  and  _275
REMARK  128  A    between atoms: _275  and  _276
REMARK  129  A    between atoms: _276  and  _277
REMARK  130  A    between atoms: _280  and  _281
REMARK  131  A    between atoms: _281  and  _282
REMARK  132  A    between atoms: _281  and  _284
REMARK  133  A    between atoms: _284  and  _285
REMARK  134  A    between atoms: _288  and  _289
REMARK  135  A    between atoms: _289  and  _292
REMARK  136  A    between atoms: _292  and  _293
REMARK  137  A    between atoms: _309  and  _310
REMARK  138  A    between atoms: _309  and  _312
REMARK  139  A    between atoms: _312  and  _313
REMARK  140  A    between atoms: _316  and  _317
REMARK  141  A    between atoms: _317  and  _318
REMARK  142  A    between atoms: _317  and  _320
REMARK  143  A    between atoms: _322  and  _323
REMARK  144  A    between atoms: _323  and  _324
REMARK  145  A    between atoms: _323  and  _326
REMARK  146  A    between atoms: _328  and  _329
REMARK  147  A    between atoms: _329  and  _330
REMARK  148  A    between atoms: _329  and  _332
REMARK  149  A    between atoms: _332  and  _333
REMARK  150  A    between atoms: _336  and  _337
REMARK  151  A    between atoms: _337  and  _338
REMARK  152  A    between atoms: _341  and  _342
REMARK  153  A    between atoms: _342  and  _343
REMARK  154  A    between atoms: _342  and  _345
REMARK  155  A    between atoms: _345  and  _346
REMARK  156  A    between atoms: _349  and  _350
REMARK  157  A    between atoms: _350  and  _351
REMARK  158  A    between atoms: _350  and  _353
REMARK  159  A    between atoms: _353  and  _354
REMARK  160  A    between atoms: _357  and  _358
REMARK  161  A    between atoms: _358  and  _359
REMARK  162  A    between atoms: _358  and  _361
REMARK  163  A    between atoms: _361  and  _362
REMARK  164  A    between atoms: _362  and  _363
REMARK  165  A    between atoms: _363  and  _364
REMARK  166  A    between atoms: _366  and  _367
REMARK  167  A    between atoms: _367  and  _368
REMARK  168  A    between atoms: _367  and  _370
REMARK  169  A    between atoms: _370  and  _371
REMARK  170  A    between atoms: _374  and  _375
REMARK  171  A    between atoms: _375  and  _376
REMARK  172  A    between atoms: _375  and  _378
REMARK  173  A    between atoms: _378  and  _379
REMARK  174  A    between atoms: _379  and  _380
REMARK  175  A    between atoms: _380  and  _381
REMARK  176  A    between atoms: _385  and  _386
REMARK  177  A    between atoms: _386  and  _387
REMARK  178  A    between atoms: _386  and  _389
REMARK  179  A    between atoms: _389  and  _390
REMARK  180  A    between atoms: _397  and  _398
REMARK  181  A    between atoms: _398  and  _399
REMARK  182  A    between atoms: _398  and  _401
REMARK  183  A    between atoms: _401  and  _402
REMARK  184  A    between atoms: _402  and  _403
REMARK  185  A    between atoms: _406  and  _407
REMARK  186  A    between atoms: _407  and  _408
REMARK  187  A    between atoms: _407  and  _410
REMARK  188  A    between atoms: _412  and  _413
REMARK  189  A    between atoms: _413  and  _414
REMARK  190  A    between atoms: _413  and  _416
REMARK  191  A    between atoms: _416  and  _417
REMARK  192  A    between atoms: _420  and  _421
REMARK  193  A    between atoms: _421  and  _422
REMARK  194  A    between atoms: _421  and  _424
REMARK  195  A    between atoms: _427  and  _428
REMARK  196  A    between atoms: _428  and  _429
REMARK  197  A    between atoms: _428  and  _431
REMARK  198  A    between atoms: _431  and  _432
REMARK  199  A    between atoms: _436  and  _437
REMARK  200  A    between atoms: _442  and  _443
REMARK  201  A    between atoms: _443  and  _444
REMARK  202  A    between atoms: _443  and  _446
REMARK  203  A    between atoms: _448  and  _449
REMARK  204  A    between atoms: _449  and  _450
REMARK  205  A    between atoms: _449  and  _452
REMARK  206  A    between atoms: _452  and  _453
REMARK  207  A    between atoms: _453  and  _454
REMARK  208  A    between atoms: _454  and  _455
REMARK  209  A    between atoms: _457  and  _458
REMARK  210  A    between atoms: _458  and  _459
REMARK  211  A    between atoms: _458  and  _461
REMARK  212  A    between atoms: _461  and  _462
REMARK  213  A    between atoms: _465  and  _466
REMARK  214  A    between atoms: _466  and  _467
REMARK  215  A    between atoms: _466  and  _469
REMARK  216  A    between atoms: _469  and  _470
REMARK  217  A    between atoms: _473  and  _474
REMARK  218  A    between atoms: _474  and  _475
REMARK  219  A    between atoms: _474  and  _477
REMARK  220  A    between atoms: _479  and  _480
REMARK  221  A    between atoms: _480  and  _481
REMARK  222  A    between atoms: _483  and  _484
REMARK  223  A    between atoms: _484  and  _485
REMARK  224  A    between atoms: _484  and  _487
REMARK  225  A    between atoms: _487  and  _488
REMARK  226  A    between atoms: _488  and  _489
REMARK  227  A    between atoms: _489  and  _490
REMARK  228  A    between atoms: _492  and  _493
REMARK  229  A    between atoms: _493  and  _494
REMARK  230  A    between atoms: _493  and  _496
REMARK  231  A    between atoms: _496  and  _497
REMARK  232  A    between atoms: _497  and  _498
REMARK  233  A    between atoms: _501  and  _502
REMARK  234  A    between atoms: _502  and  _503
REMARK  235  A    between atoms: _502  and  _505
REMARK  236  A    between atoms: _505  and  _506
REMARK  237  A    between atoms: _509  and  _510
REMARK  238  A    between atoms: _510  and  _511
REMARK  239  A    between atoms: _510  and  _513
REMARK  240  A    between atoms: _513  and  _514
REMARK  241  A    between atoms: _519  and  _520
REMARK  242  A    between atoms: _520  and  _521
REMARK  243  A    between atoms: _520  and  _523
REMARK  244  A    between atoms: _523  and  _524
REMARK  245  A    between atoms: _527  and  _528
REMARK  246  A    between atoms: _528  and  _529
REMARK  247  A    between atoms: _528  and  _531
REMARK  248  A    between atoms: _531  and  _532
REMARK  249  A    between atoms: _535  and  _536
REMARK  250  A    between atoms: _536  and  _537
REMARK  251  A    between atoms: _536  and  _539
REMARK  252  A    between atoms: _539  and  _540
REMARK  253  A    between atoms: _543  and  _544
REMARK  254  A    between atoms: _544  and  _545
REMARK  255  A    between atoms: _544  and  _547
REMARK  256  A    between atoms: _547  and  _548
REMARK  257  A    between atoms: _552  and  _553
REMARK  258  A    between atoms: _558  and  _559
REMARK  259  A    between atoms: _559  and  _560
REMARK  260  A    between atoms: _559  and  _562
REMARK  261  A    between atoms: _562  and  _563
REMARK  262  A    between atoms: _566  and  _567
REMARK  263  A    between atoms: _567  and  _568
REMARK  264  A    between atoms: _567  and  _570
REMARK  265  A    between atoms: _570  and  _571
REMARK  266  A    between atoms: _571  and  _572
REMARK  267  A    between atoms: _572  and  _573
REMARK  268  A    between atoms: _575  and  _576
REMARK  269  A    between atoms: _576  and  _577
REMARK  270  A    between atoms: _576  and  _579
REMARK  271  A    between atoms: _579  and  _580
REMARK  272  A    between atoms: _580  and  _581
REMARK  273  A    between atoms: _584  and  _585
REMARK  274  A    between atoms: _585  and  _586
REMARK  275  A    between atoms: _585  and  _588
REMARK  276  A    between atoms: _588  and  _589
REMARK  277  A    between atoms: _592  and  _593
REMARK  278  A    between atoms: _593  and  _594
REMARK  279  A    between atoms: _593  and  _596
REMARK  280  A    between atoms: _596  and  _597
REMARK  281  A    between atoms: _597  and  _598
REMARK  282  A    between atoms: _598  and  _599
REMARK  283  A    between atoms: _603  and  _604
REMARK  284  A    between atoms: _604  and  _605
REMARK  285  A    between atoms: _604  and  _607
REMARK  286  A    between atoms: _610  and  _611
REMARK  287  A    between atoms: _611  and  _612
REMARK  288  A    between atoms: _611  and  _614
REMARK  289  A    between atoms: _614  and  _615
REMARK  290  A    between atoms: _618  and  _619
REMARK  291  A    between atoms: _619  and  _620
REMARK  292  A    between atoms: _619  and  _622
REMARK  293  A    between atoms: _625  and  _626
REMARK  294  A    between atoms: _626  and  _627
REMARK  295  A    between atoms: _626  and  _629
REMARK  296  A    between atoms: _629  and  _630
REMARK  297  A    between atoms: _633  and  _634
REMARK  298  A    between atoms: _634  and  _635
REMARK  299  A    between atoms: _634  and  _637
REMARK  300  A    between atoms: _640  and  _641
REMARK  301  A    between atoms: _641  and  _642
REMARK  302  A    between atoms: _641  and  _644
REMARK  303  A    between atoms: _644  and  _645
REMARK  304  A    between atoms: _648  and  _649
REMARK  305  A    between atoms: _649  and  _650
REMARK  306  A    between atoms: _649  and  _652
REMARK  307  A    between atoms: _655  and  _656
REMARK  308  A    between atoms: _656  and  _657
REMARK  309  A    between atoms: _659  and  _660
REMARK  310  A    between atoms: _660  and  _661
REMARK  311  A    between atoms: _660  and  _663
REMARK  312  A    between atoms: _663  and  _664
REMARK  313  A    between atoms: _667  and  _668
REMARK  314  A    between atoms: _668  and  _669
REMARK  315  A    between atoms: _671  and  _672
REMARK  316  A    between atoms: _672  and  _673
REMARK  317  A    between atoms: _672  and  _675
REMARK  318  A    between atoms: _675  and  _676
REMARK  319  A    between atoms: _676  and  _677
REMARK  320  A    between atoms: _679  and  _680
REMARK  321  A    between atoms: _680  and  _681
REMARK  322  A    between atoms: _680  and  _683
REMARK  323  A    between atoms: _686  and  _687
REMARK  324  A    between atoms: _687  and  _688
REMARK  325  A    between atoms: _687  and  _690
REMARK  326  A    between atoms: _690  and  _691
REMARK  327  A    between atoms: _691  and  _692
REMARK  328  A    between atoms: _692  and  _693
REMARK  329  A    between atoms: _695  and  _696
REMARK  330  A    between atoms: _696  and  _697
REMARK  331  A    between atoms: _700  and  _701
REMARK  332  A    between atoms: _701  and  _702
REMARK  333  A    between atoms: _701  and  _704
REMARK  334  A    between atoms: _704  and  _705
REMARK  335  A    between atoms: _708  and  _709
REMARK  336  A    between atoms: _709  and  _710
REMARK  337  A    between atoms: _709  and  _712
REMARK  338  A    between atoms: _712  and  _713
REMARK  339  A    between atoms: _716  and  _717
REMARK  340  A    between atoms: _717  and  _720
REMARK  341  A    between atoms: _720  and  _721
REMARK  342  A    between atoms: _733  and  _734
REMARK  343  A    between atoms: _733  and  _735
REMARK  344  A    between atoms: _741  and  _744
REMARK  345  A    between atoms: _744  and  _745
REMARK  346  A    between atoms: _758  and  _759
REMARK  347  A    between atoms: _758  and  _761
REMARK  348  A    between atoms: _759  and  _760
REMARK  349  A    between atoms: _765  and  _766
REMARK  350  A    between atoms: _768  and  _769
REMARK  351  A    between atoms: _769  and  _770
REMARK  352  A    between atoms: _769  and  _772
REMARK  353  A    between atoms: _775  and  _776
REMARK  354  A    between atoms: _776  and  _777
REMARK  355  A    between atoms: _776  and  _779
REMARK  356  A    between atoms: _779  and  _780
REMARK  357  A    between atoms: _783  and  _784
REMARK  358  A    between atoms: _784  and  _785
REMARK  359  A    between atoms: _788  and  _789
REMARK  360  A    between atoms: _789  and  _790
REMARK  361  A    between atoms: _789  and  _792
REMARK  362  A    between atoms: _792  and  _793
REMARK  363  A    between atoms: _793  and  _794
REMARK  364  A    between atoms: _794  and  _795
REMARK  365  A    between atoms: _797  and  _798
REMARK  366  A    between atoms: _798  and  _799
REMARK  367  A    between atoms: _798  and  _801
REMARK  368  A    between atoms: _803  and  _804
REMARK  369  A    between atoms: _804  and  _805
REMARK  370  A    between atoms: _807  and  _808
REMARK  371  A    between atoms: _808  and  _809
REMARK  372  A    between atoms: _808  and  _811
REMARK  373  A    between atoms: _814  and  _815
REMARK  374  A    between atoms: _815  and  _816
REMARK  375  A    between atoms: _815  and  _818
REMARK  376  A    between atoms: _818  and  _819
REMARK  377  A    between atoms: _819  and  _820
REMARK  378  A    between atoms: _820  and  _821
REMARK  379  A    between atoms: _823  and  _824
REMARK  380  A    between atoms: _824  and  _825
REMARK  381  A    between atoms: _828  and  _829
REMARK  382  A    between atoms: _829  and  _830
REMARK  383  A    between atoms: _829  and  _832
REMARK  384  A    between atoms: _832  and  _833
REMARK  385  A    between atoms: _839  and  _840
REMARK  386  A    between atoms: _840  and  _841
REMARK  387  A    between atoms: _840  and  _843
REMARK  388  A    between atoms: _843  and  _844
REMARK  389  A    between atoms: _844  and  _845
REMARK  390  A    between atoms: _847  and  _848
REMARK  391  A    between atoms: _848  and  _849
REMARK  392  A    between atoms: _848  and  _851
REMARK  393  A    between atoms: _851  and  _852
REMARK  394  A    between atoms: _852  and  _853
REMARK  395  A    between atoms: _856  and  _857
REMARK  396  A    between atoms: _857  and  _858
REMARK  397  A    between atoms: _861  and  _862
REMARK  398  A    between atoms: _862  and  _863
REMARK  399  A    between atoms: _862  and  _865
REMARK  400  A    between atoms: _865  and  _866
REMARK  401  A    between atoms: _869  and  _870
REMARK  402  A    between atoms: _870  and  _871
REMARK  403  A    between atoms: _870  and  _873
REMARK  404  A    between atoms: _873  and  _874
REMARK  405  A    between atoms: _874  and  _875
REMARK  406  A    between atoms: _878  and  _879
REMARK  407  A    between atoms: _879  and  _880
REMARK  408  A    between atoms: _883  and  _884
REMARK  409  A    between atoms: _884  and  _885
REMARK  410  A    between atoms: _887  and  _888
REMARK  411  A    between atoms: _888  and  _889
REMARK  412  A    between atoms: _892  and  _893
REMARK  413  A    between atoms: _893  and  _894
REMARK  414  A    between atoms: _893  and  _896
REMARK  415  A    between atoms: _896  and  _897
REMARK  416  A    between atoms: _900  and  _901
REMARK  417  A    between atoms: _901  and  _902
REMARK  418  A    between atoms: _901  and  _904
REMARK  419  A    between atoms: _904  and  _905
REMARK  420  A    between atoms: _908  and  _909
REMARK  421  A    between atoms: _909  and  _910
REMARK  422  A    between atoms: _909  and  _912
REMARK  423  A    between atoms: _914  and  _915
REMARK  424  A    between atoms: _915  and  _916
REMARK  425  A    between atoms: _915  and  _918
REMARK  426  A    between atoms: _918  and  _919
REMARK  427  A    between atoms: _919  and  _920
REMARK  428  A    between atoms: _922  and  _923
REMARK  429  A    between atoms: _923  and  _924
REMARK  430  A    between atoms: _923  and  _926
REMARK  431  A    between atoms: _926  and  _927
REMARK  432  A    between atoms: _930  and  _931
REMARK  433  A    between atoms: _931  and  _932
REMARK  434  A    between atoms: _934  and  _935
REMARK  435  A    between atoms: _935  and  _936
REMARK  436  A    between atoms: _935  and  _938
REMARK  437  A    between atoms: _938  and  _939
REMARK  438  A    between atoms: _939  and  _940
REMARK  439  A    between atoms: _943  and  _944
REMARK  440  A    between atoms: _944  and  _945
REMARK  441  A    between atoms: _944  and  _947
REMARK  442  A    between atoms: _947  and  _948
REMARK  443  A    between atoms: _954  and  _955
REMARK  444  A    between atoms: _955  and  _956
REMARK  445  A    between atoms: _958  and  _959
REMARK  446  A    between atoms: _959  and  _960
REMARK  447  A    between atoms: _959  and  _962
REMARK  448  A    between atoms: _965  and  _966
REMARK  449  A    between atoms: _966  and  _967
REMARK  450  A    between atoms: _969  and  _970
REMARK  451  A    between atoms: _970  and  _971
REMARK  452  A    between atoms: _970  and  _973
REMARK  453  A    between atoms: _973  and  _974
REMARK  454  A    between atoms: _980  and  _981
REMARK  455  A    between atoms: _981  and  _982
REMARK  456  A    between atoms: _981  and  _984
REMARK  457  A    between atoms: _984  and  _985
REMARK  458  A    between atoms: _992  and  _993
REMARK  459  A    between atoms: _993  and  _994
REMARK  460  A    between atoms: _993  and  _996
REMARK  461  A    between atoms: _998  and  _999
REMARK  462  A    between atoms: _999  and  _1000
REMARK  463  A    between atoms: _1003  and  _1004
REMARK  464  A    between atoms: _1004  and  _1005
REMARK  465  A    between atoms: _1004  and  _1007
REMARK  466  A    between atoms: _1007  and  _1008
REMARK  467  A    between atoms: _1015  and  _1016
REMARK  468  A    between atoms: _1016  and  _1017
REMARK  469  A    between atoms: _1016  and  _1019
REMARK  470  A    between atoms: _1019  and  _1020
REMARK  471  A    between atoms: _1023  and  _1024
REMARK  472  A    between atoms: _1024  and  _1025
REMARK  473  A    between atoms: _1024  and  _1027
REMARK  474  A    between atoms: _1030  and  _1031
REMARK  475  A    between atoms: _1031  and  _1032
REMARK  476  A    between atoms: _1035  and  _1036
REMARK  477  A    between atoms: _1036  and  _1037
REMARK  478  A    between atoms: _1036  and  _1039
REMARK  479  A    between atoms: _1039  and  _1040
REMARK  480  A    between atoms: _1040  and  _1041
REMARK  481  A    between atoms: _1044  and  _1045
REMARK  482  A    between atoms: _1045  and  _1046
REMARK  483  A    between atoms: _1045  and  _1048
REMARK  484  A    between atoms: _1048  and  _1049
REMARK  485  A    between atoms: _1049  and  _1050
REMARK  486  A    between atoms: _1050  and  _1051
REMARK  487  A    between atoms: _1053  and  _1054
REMARK  488  A    between atoms: _1054  and  _1055
REMARK  489  A    between atoms: _1054  and  _1057
REMARK  490  A    between atoms: _1060  and  _1061
REMARK  491  A    between atoms: _1061  and  _1062
REMARK  492  A    between atoms: _1061  and  _1064
REMARK  493  A    between atoms: _1067  and  _1068
REMARK  494  A    between atoms: _1068  and  _1069
REMARK  495  A    between atoms: _1068  and  _1071
REMARK  496  A    between atoms: _1074  and  _1075
REMARK  497  A    between atoms: _1075  and  _1076
REMARK  498  A    between atoms: _1075  and  _1078
REMARK  499  A    between atoms: _1078  and  _1079
REMARK  500  A    between atoms: _1082  and  _1083
REMARK  501  A    between atoms: _1083  and  _1084
REMARK  502  A    between atoms: _1083  and  _1086
REMARK  503  A    between atoms: _1089  and  _1090
REMARK  504  A    between atoms: _1090  and  _1091
REMARK  505  A    between atoms: _1090  and  _1093
REMARK  506  A    between atoms: _1093  and  _1094
REMARK  507  A    between atoms: _1094  and  _1095
REMARK  508  A    between atoms: _1095  and  _1096
REMARK  509  A    between atoms: _1098  and  _1099
REMARK  510  A    between atoms: _1099  and  _1100
REMARK  511  A    between atoms: _1099  and  _1102
REMARK  512  A    between atoms: _1102  and  _1103
REMARK  513  A    between atoms: _1108  and  _1109
REMARK  514  A    between atoms: _1109  and  _1110
REMARK  515  A    between atoms: _1109  and  _1112
REMARK  516  A    between atoms: _1112  and  _1113
REMARK  517  A    between atoms: _1116  and  _1117
REMARK  518  A    between atoms: _1117  and  _1118
REMARK  519  A    between atoms: _1117  and  _1120
REMARK  520  A    between atoms: _1120  and  _1121
REMARK  521  A    between atoms: _1124  and  _1125
REMARK  522  A    between atoms: _1125  and  _1126
REMARK  523  A    between atoms: _1125  and  _1128
REMARK  524  A    between atoms: _1128  and  _1129
REMARK  525  A    between atoms: _1132  and  _1133
REMARK  526  A    between atoms: _1133  and  _1134
REMARK  527  A    between atoms: _1133  and  _1136
REMARK  528  A    between atoms: _1136  and  _1137
REMARK  529  A    between atoms: _1137  and  _1138
REMARK  530  A    between atoms: _1141  and  _1142
REMARK  531  A    between atoms: _1142  and  _1143
REMARK  532  A    between atoms: _1142  and  _1145
REMARK  533  A    between atoms: _1145  and  _1146
REMARK  534  A    between atoms: _1146  and  _1147
REMARK  535  A    between atoms: _1150  and  _1151
REMARK  536  A    between atoms: _1151  and  _1152
REMARK  537  A    between atoms: _1151  and  _1154
REMARK  538  A    between atoms: _1154  and  _1155
REMARK  539  A    between atoms: _1162  and  _1163
REMARK  540  A    between atoms: _1163  and  _1164
REMARK  541  A    between atoms: _1167  and  _1168
REMARK  542  A    between atoms: _1168  and  _1169
REMARK  543  A    between atoms: _1168  and  _1171
REMARK  544  A    between atoms: _1171  and  _1172
REMARK  545  A    between atoms: _1181  and  _1182
REMARK  546  A    between atoms: _1182  and  _1183
REMARK  547  A    between atoms: _1182  and  _1185
REMARK  548  A    between atoms: _1185  and  _1186
REMARK  549  A    between atoms: _1186  and  _1187
REMARK  550  A    between atoms: _1190  and  _1191
REMARK  551  A    between atoms: _1191  and  _1192
REMARK  552  A    between atoms: _1191  and  _1194
REMARK  553  A    between atoms: _1196  and  _1197
REMARK  554  A    between atoms: _1197  and  _1198
REMARK  555  A    between atoms: _1197  and  _1200
REMARK  556  A    between atoms: _1202  and  _1203
REMARK  557  A    between atoms: _1203  and  _1204
REMARK  558  A    between atoms: _1207  and  _1208
REMARK  559  A    between atoms: _1208  and  _1209
REMARK  560  A    between atoms: _1211  and  _1212
REMARK  561  A    between atoms: _1212  and  _1213
REMARK  562  A    between atoms: _1215  and  _1216
REMARK  563  A    between atoms: _1216  and  _1217
REMARK  564  A    between atoms: _1216  and  _1219
REMARK  565  A    between atoms: _1221  and  _1222
REMARK  566  A    between atoms: _1222  and  _1223
REMARK  567  A    between atoms: _1222  and  _1225
REMARK  568  A    between atoms: _1225  and  _1226
REMARK  569  A    between atoms: _1232  and  _1233
REMARK  570  A    between atoms: _1233  and  _1234
REMARK  571  A    between atoms: _1233  and  _1236
REMARK  572  A    between atoms: _1239  and  _1240
REMARK  573  A    between atoms: _1240  and  _1241
REMARK  574  A    between atoms: _1240  and  _1243
REMARK  575  A    between atoms: _1247  and  _1249
REMARK  576  A    between atoms: _1247  and  _1252
REMARK  577  A    between atoms: _1251  and  _1252
REMARK  578  A    between atoms: _1251  and  _1254
REMARK  579  A    between atoms: _1253  and  _1254
REMARK  580  A    between atoms: _1253  and  _1256
REMARK  581  A    between atoms: _1254  and  _1255
REMARK  582  A    between atoms: _1255  and  _1257
REMARK  583  A    between atoms: _1256  and  _1258
REMARK  584  A    between atoms: _1265  and  _1266
REMARK  585  A    between atoms: _1266  and  _1267
REMARK  586  A    between atoms: _1266  and  _1269
REMARK  587  A    between atoms: _1272  and  _1273
REMARK  588  A    between atoms: _1273  and  _1274
REMARK  589  A    between atoms: _1273  and  _1276
REMARK  590  A    between atoms: _1276  and  _1277
REMARK  591  A    between atoms: _1280  and  _1281
REMARK  592  A    between atoms: _1281  and  _1282
REMARK  593  A    between atoms: _1281  and  _1284
REMARK  594  A    between atoms: _1287  and  _1288
REMARK  595  A    between atoms: _1288  and  _1289
REMARK  596  A    between atoms: _1291  and  _1292
REMARK  597  A    between atoms: _1292  and  _1293
REMARK  598  A    between atoms: _1292  and  _1295
REMARK  599  A    between atoms: _1295  and  _1296
REMARK  600  A    between atoms: _1296  and  _1297
REMARK  601  A    between atoms: _1301  and  _1302
REMARK  602  A    between atoms: _1307  and  _1308
REMARK  603  A    between atoms: _1308  and  _1309
REMARK  604  A    between atoms: _1308  and  _1311
REMARK  605  A    between atoms: _1311  and  _1312
REMARK  606  A    between atoms: _1312  and  _1313
REMARK  607  A    between atoms: _1315  and  _1316
REMARK  608  A    between atoms: _1316  and  _1317
REMARK  609  A    between atoms: _1319  and  _1320
REMARK  610  A    between atoms: _1320  and  _1321
REMARK  611  A    between atoms: _1320  and  _1323
REMARK  612  A    between atoms: _1323  and  _1324
REMARK  613  A    between atoms: _1324  and  _1325
REMARK  614  A    between atoms: _1325  and  _1326
REMARK  615  A    between atoms: _1330  and  _1331
REMARK  616  A    between atoms: _1331  and  _1332
REMARK  617  A    between atoms: _1334  and  _1335
REMARK  618  A    between atoms: _1335  and  _1336
REMARK  619  A    between atoms: _1335  and  _1338
REMARK  620  A    between atoms: _1341  and  _1342
REMARK  621  A    between atoms: _1342  and  _1343
REMARK  622  A    between atoms: _1342  and  _1345
REMARK  623  A    between atoms: _1345  and  _1346
REMARK  624  A    between atoms: _1346  and  _1347
REMARK  625  A    between atoms: _1347  and  _1348
REMARK  626  A    between atoms: _1350  and  _1351
REMARK  627  A    between atoms: _1351  and  _1352
REMARK  628  A    between atoms: _1351  and  _1354
REMARK  629  A    between atoms: _1357  and  _1358
REMARK  630  A    between atoms: _1358  and  _1359
REMARK  631  A    between atoms: _1358  and  _1361
REMARK  632  A    between atoms: _1361  and  _1362
REMARK  633  A    between atoms: _1365  and  _1366
REMARK  634  A    between atoms: _1366  and  _1367
REMARK  635  A    between atoms: _1366  and  _1369
REMARK  636  A    between atoms: _1369  and  _1370
REMARK  637  A    between atoms: _1373  and  _1374
REMARK  638  A    between atoms: _1374  and  _1375
REMARK  639  A    between atoms: _1374  and  _1377
REMARK  640  A    between atoms: _1377  and  _1378
REMARK  641  A    between atoms: _1383  and  _1384
REMARK  642  A    between atoms: _1384  and  _1385
REMARK  643  A    between atoms: _1384  and  _1387
REMARK  644  A    between atoms: _1387  and  _1388
REMARK  645  A    between atoms: _1391  and  _1392
REMARK  646  A    between atoms: _1392  and  _1393
REMARK  647  A    between atoms: _1392  and  _1395
REMARK  648  A    between atoms: _1395  and  _1396
REMARK  649  A    between atoms: _1396  and  _1397
REMARK  650  A    between atoms: _1397  and  _1398
REMARK  651  A    between atoms: _1400  and  _1401
REMARK  652  A    between atoms: _1401  and  _1402
REMARK  653  A    between atoms: _1401  and  _1404
REMARK  654  A    between atoms: _1404  and  _1405
REMARK  655  A    between atoms: _1405  and  _1406
REMARK  656  A    between atoms: _1409  and  _1410
REMARK  657  A    between atoms: _1410  and  _1411
REMARK  658  A    between atoms: _1410  and  _1413
REMARK  659  A    between atoms: _1413  and  _1414
REMARK  660  A    between atoms: _1417  and  _1418
REMARK  661  A    between atoms: _1418  and  _1419
REMARK  662  A    between atoms: _1418  and  _1421
REMARK  663  A    between atoms: _1421  and  _1422
REMARK  664  A    between atoms: _1422  and  _1423
REMARK  665  A    between atoms: _1426  and  _1427
REMARK  666  A    between atoms: _1427  and  _1428
REMARK  667  A    between atoms: _1427  and  _1430
REMARK  668  A    between atoms: _1433  and  _1434
REMARK  669  A    between atoms: _1434  and  _1435
REMARK  670  A    between atoms: _1434  and  _1437
REMARK  671  A    between atoms: _1437  and  _1438
REMARK  672  A    between atoms: _1438  and  _1439
REMARK  673  A    between atoms: _1442  and  _1443
REMARK  674  A    between atoms: _1443  and  _1444
REMARK  675  A    between atoms: _1443  and  _1446
REMARK  676  A    between atoms: _1446  and  _1447
REMARK  677  A    between atoms: _1454  and  _1455
REMARK  678  A    between atoms: _1455  and  _1456
REMARK  679  A    between atoms: _1455  and  _1458
REMARK  680  A    between atoms: _1458  and  _1459
REMARK  681  A    between atoms: _1462  and  _1463
REMARK  682  A    between atoms: _1463  and  _1464
REMARK  683  A    between atoms: _1463  and  _1466
REMARK  684  A    between atoms: _1466  and  _1467
REMARK  685  A    between atoms: _1467  and  _1468
REMARK  686  A    between atoms: _1471  and  _1472
REMARK  687  A    between atoms: _1472  and  _1473
REMARK  688  A    between atoms: _1472  and  _1475
REMARK  689  A    between atoms: _1475  and  _1476
REMARK  690  A    between atoms: _1476  and  _1477
REMARK  691  A    between atoms: _1480  and  _1481
REMARK  692  A    between atoms: _1481  and  _1482
REMARK  693  A    between atoms: _1481  and  _1484
REMARK  694  A    between atoms: _1484  and  _1485
REMARK  695  A    between atoms: _1485  and  _1486
REMARK  696  A    between atoms: _1486  and  _1487
REMARK  697  A    between atoms: _1491  and  _1492
REMARK  698  A    between atoms: _1492  and  _1493
REMARK  699  A    between atoms: _1492  and  _1495
REMARK  700  A    between atoms: _1495  and  _1496
REMARK  701  A    between atoms: _1496  and  _1497
REMARK  702  A    between atoms: _1497  and  _1498
REMARK  703  A    between atoms: _1502  and  _1503
REMARK  704  A    between atoms: _1503  and  _1504
REMARK  705  A    between atoms: _1503  and  _1506
REMARK  706  A    between atoms: _1506  and  _1507
REMARK  707  A    between atoms: _1510  and  _1511
REMARK  708  A    between atoms: _1511  and  _1512
REMARK  709  A    between atoms: _1511  and  _1514
REMARK  710  A    between atoms: _1514  and  _1515
REMARK  711  A    between atoms: _1515  and  _1516
REMARK  712  A    between atoms: _1516  and  _1517
REMARK  713  A    between atoms: _1519  and  _1520
REMARK  714  A    between atoms: _1520  and  _1521
REMARK  715  A    between atoms: _1520  and  _1523
REMARK  716  A    between atoms: _1523  and  _1524
REMARK  717  A    between atoms: _1524  and  _1525
REMARK  718  A    between atoms: _1528  and  _1529
REMARK  719  A    between atoms: _1529  and  _1530
REMARK  720  A    between atoms: _1529  and  _1532
REMARK  721  A    between atoms: _1532  and  _1533
REMARK  722  A    between atoms: _1536  and  _1537
REMARK  723  A    between atoms: _1537  and  _1538
REMARK  724  A    between atoms: _1537  and  _1540
REMARK  725  A    between atoms: _1543  and  _1544
REMARK  726  A    between atoms: _1544  and  _1545
REMARK  727  A    between atoms: _1544  and  _1547
REMARK  728  A    between atoms: _1547  and  _1548
REMARK  729  A    between atoms: _1548  and  _1549
REMARK  730  A    between atoms: _1549  and  _1550
REMARK  731  A    between atoms: _1552  and  _1553
REMARK  732  A    between atoms: _1553  and  _1554
REMARK  733  A    between atoms: _1553  and  _1556
REMARK  734  A    between atoms: _1556  and  _1557
REMARK  735  A    between atoms: _1557  and  _1558
REMARK  736  A    between atoms: _1558  and  _1559
REMARK  737  A    between atoms: _1561  and  _1562
REMARK  738  A    between atoms: _1562  and  _1563
REMARK  739  A    between atoms: _1562  and  _1565
REMARK  740  A    between atoms: _1565  and  _1566
REMARK  741  A    between atoms: _1571  and  _1572
REMARK  742  A    between atoms: _1572  and  _1573
REMARK  743  A    between atoms: _1572  and  _1575
REMARK  744  A    between atoms: _1577  and  _1578
REMARK  745  A    between atoms: _1578  and  _1579
REMARK  746  A    between atoms: _1578  and  _1581
REMARK  747  A    between atoms: _1581  and  _1582
REMARK  748  A    between atoms: _1582  and  _1583
REMARK  749  A    between atoms: _1586  and  _1587
REMARK  750  A    between atoms: _1587  and  _1588
REMARK  751  A    between atoms: _1587  and  _1590
REMARK  752  A    between atoms: _1590  and  _1591
REMARK  753  A    between atoms: _1597  and  _1598
REMARK  754  A    between atoms: _1598  and  _1599
REMARK  755  A    between atoms: _1598  and  _1601
REMARK  756  A    between atoms: _1601  and  _1602
REMARK  757  A    between atoms: _1605  and  _1606
REMARK  758  A    between atoms: _1606  and  _1607
REMARK  759  A    between atoms: _1609  and  _1610
REMARK  760  A    between atoms: _1610  and  _1611
REMARK  761  A    between atoms: _1610  and  _1613
REMARK  762  A    between atoms: _1613  and  _1614
REMARK  763  A    between atoms: _1622  and  _1623
REMARK  764  A    between atoms: _1628  and  _1629
REMARK  765  A    between atoms: _1629  and  _1630
REMARK  766  A    between atoms: _1629  and  _1632
REMARK  767  A    between atoms: _1632  and  _1633
REMARK  768  A    between atoms: _1636  and  _1637
REMARK  769  A    between atoms: _1637  and  _1638
REMARK  770  A    between atoms: _1637  and  _1640
REMARK  771  A    between atoms: _1643  and  _1644
REMARK  772  A    between atoms: _1644  and  _1645
REMARK  773  A    between atoms: _1644  and  _1647
REMARK  774  A    between atoms: _1647  and  _1648
REMARK  775  A    between atoms: _1651  and  _1652
REMARK  776  A    between atoms: _1652  and  _1653
REMARK  777  A    between atoms: _1652  and  _1655
REMARK  778  A    between atoms: _1655  and  _1656
REMARK  779  A    between atoms: _1662  and  _1663
REMARK  780  A    between atoms: _1663  and  _1664
REMARK  781  A    between atoms: _1663  and  _1666
REMARK  782  A    between atoms: _1669  and  _1670
REMARK  783  A    between atoms: _1670  and  _1671
REMARK  784  A    between atoms: _1670  and  _1673
REMARK  785  A    between atoms: _1673  and  _1674
REMARK  786  A    between atoms: _1674  and  _1675
REMARK                            x       y       z     vdW  Elec       q    Type
REMARK                         _______ _______ _______ _____ _____    ______ ____
ROOT
ATOM      1  C   UNL     1      -5.298   8.833  17.074  0.00  0.00    +0.320 C 
ATOM      2  O   UNL     1      -5.998   8.277  17.942  0.00  0.00    -0.263 OA
ATOM      3  N   UNL     1      -4.226   8.235  16.521  0.00  0.00    -0.196 NA
ATOM      4  C   UNL     1      -3.790   6.916  16.901  0.00  0.00    +0.139 C 
ENDROOT
TORSDOF 0
REMARK  Name = /Users/mlugowska/PhD/ML_residence_time_prediction/protein_files/5J64_protein.pdb
REMARK  786 active torsions:
REMARK  status: ('A' for Active; 'I' for Inactive)
REMARK    1  A    between atoms: _2  and  _3
REMARK    2  A    between atoms: _2  and  _5
REMARK    3  A    between atoms: _5  and  _6
REMARK    4  A    between atoms: _6  and  _7
REMARK    5  A    between atoms: _10  and  _11
REMARK    6  A    between atoms: _11  and  _12
REMARK    7  A    between atoms: _11  and  _14
REMARK    8  A    between atoms: _17  and  _18
REMARK    9  A    between atoms: _18  and  _19
REMARK   10  A    between atoms: _18  and  _21
REMARK   11  A    between atoms: _21  and  _22
REMARK   12  A    between atoms: _22  and  _23
REMARK   13  A    between atoms: _26  and  _27
REMARK   14  A    between atoms: _27  and  _28
REMARK   15  A    between atoms: _27  and  _30
REMARK   16  A    between atoms: _33  and  _34
REMARK   17  A    between atoms: _34  and  _35
REMARK   18  A    between atoms: _34  and  _37
REMARK   19  A    between atoms: _37  and  _38
REMARK   20  A    between atoms: _44  and  _45
REMARK   21  A    between atoms: _45  and  _46
REMARK   22  A    between atoms: _49  and  _50
REMARK   23  A    between atoms: _50  and  _51
REMARK   24  A    between atoms: _50  and  _53
REMARK   25  A    between atoms: _53  and  _54
REMARK   26  A    between atoms: _60  and  _61
REMARK   27  A    between atoms: _61  and  _62
REMARK   28  A    between atoms: _61  and  _64
REMARK   29  A    between atoms: _64  and  _65
REMARK   30  A    between atoms: _65  and  _66
REMARK   31  A    between atoms: _69  and  _70
REMARK   32  A    between atoms: _70  and  _71
REMARK   33  A    between atoms: _74  and  _75
REMARK   34  A    between atoms: _75  and  _76
REMARK   35  A    between atoms: _75  and  _78
REMARK   36  A    between atoms: _78  and  _79
REMARK   37  A    between atoms: _79  and  _80
REMARK   38  A    between atoms: _83  and  _84
REMARK   39  A    between atoms: _84  and  _85
REMARK   40  A    between atoms: _84  and  _87
REMARK   41  A    between atoms: _87  and  _88
REMARK   42  A    between atoms: _91  and  _92
REMARK   43  A    between atoms: _92  and  _93
REMARK   44  A    between atoms: _96  and  _97
REMARK   45  A    between atoms: _97  and  _98
REMARK   46  A    between atoms: _97  and  _100
REMARK   47  A    between atoms: _100  and  _101
REMARK   48  A    between atoms: _101  and  _102
REMARK   49  A    between atoms: _105  and  _106
REMARK   50  A    between atoms: _106  and  _107
REMARK   51  A    between atoms: _106  and  _109
REMARK   52  A    between atoms: _109  and  _110
REMARK   53  A    between atoms: _113  and  _114
REMARK   54  A    between atoms: _114  and  _115
REMARK   55  A    between atoms: _114  and  _117
REMARK   56  A    between atoms: _117  and  _118
REMARK   57  A    between atoms: _118  and  _119
REMARK   58  A    between atoms: _121  and  _122
REMARK   59  A    between atoms: _122  and  _123
REMARK   60  A    between atoms: _122  and  _125
REMARK   61  A    between atoms: _127  and  _128
REMARK   62  A    between atoms: _128  and  _129
REMARK   63  A    between atoms: _128  and  _131
REMARK   64  A    between atoms: _131  and  _132
REMARK   65  A    between atoms: _135  and  _136
REMARK   66  A    between atoms: _136  and  _137
REMARK   67  A    between atoms: _136  and  _139
REMARK   68  A    between atoms: _139  and  _140
REMARK   69  A    between atoms: _143  and  _144
REMARK   70  A    between atoms: _144  and  _145
REMARK   71  A    between atoms: _144  and  _147
REMARK   72  A    between atoms: _147  and  _148
REMARK   73  A    between atoms: _151  and  _152
REMARK   74  A    between atoms: _152  and  _153
REMARK   75  A    between atoms: _152  and  _155
REMARK   76  A    between atoms: _155  and  _156
REMARK   77  A    between atoms: _159  and  _160
REMARK   78  A    between atoms: _160  and  _161
REMARK   79  A    between atoms: _160  and  _163
REMARK   80  A    between atoms: _166  and  _167
REMARK   81  A    between atoms: _167  and  _170
REMARK   82  A    between atoms: _170  and  _171
REMARK   83  A    between atoms: _181  and  _183
REMARK   84  A    between atoms: _183  and  _184
REMARK   85  A    between atoms: _189  and  _194
REMARK   86  A    between atoms: _192  and  _195
REMARK   87  A    between atoms: _193  and  _194
REMARK   88  A    between atoms: _195  and  _196
REMARK   89  A    between atoms: _201  and  _202
REMARK   90  A    between atoms: _202  and  _203
REMARK   91  A    between atoms: _202  and  _205
REMARK   92  A    between atoms: _207  and  _208
REMARK   93  A    between atoms: _208  and  _209
REMARK   94  A    between atoms: _208  and  _211
REMARK   95  A    between atoms: _211  and  _212
REMARK   96  A    between atoms: _215  and  _216
REMARK   97  A    between atoms: _216  and  _217
REMARK   98  A    between atoms: _216  and  _219
REMARK   99  A    between atoms: _219  and  _220
REMARK  100  A    between atoms: _220  and  _221
REMARK  101  A    between atoms: _221  and  _222
REMARK  102  A    between atoms: _224  and  _225
REMARK  103  A    between atoms: _225  and  _226
REMARK  104  A    between atoms: _225  and  _228
REMARK  105  A    between atoms: _228  and  _229
REMARK  106  A    between atoms: _229  and  _230
REMARK  107  A    between atoms: _233  and  _234
REMARK  108  A    between atoms: _234  and  _235
REMARK  109  A    between atoms: _234  and  _237
REMARK  110  A    between atoms: _237  and  _238
REMARK  111  A    between atoms: _241  and  _242
REMARK  112  A    between atoms: _242  and  _243
REMARK  113  A    between atoms: _242  and  _245
REMARK  114  A    between atoms: _245  and  _246
REMARK  115  A    between atoms: _252  and  _253
REMARK  116  A    between atoms: _253  and  _254
REMARK  117  A    between atoms: _253  and  _256
REMARK  118  A    between atoms: _256  and  _257
REMARK  119  A    between atoms: _260  and  _261
REMARK  120  A    between atoms: _261  and  _262
REMARK  121  A    between atoms: _261  and  _264
REMARK  122  A    between atoms: _264  and  _265
REMARK  123  A    between atoms: _265  and  _266
REMARK  124  A    between atoms: _266  and  _267
REMARK  125  A    between atoms: _271  and  _272
REMARK  126  A    between atoms: _272  and  _273
REMARK  127  A    between atoms: _272  and  _275
REMARK  128  A    between atoms: _275  and  _276
REMARK  129  A    between atoms: _276  and  _277
REMARK  130  A    between atoms: _280  and  _281
REMARK  131  A    between atoms: _281  and  _282
REMARK  132  A    between atoms: _281  and  _284
REMARK  133  A    between atoms: _284  and  _285
REMARK  134  A    between atoms: _288  and  _289
REMARK  135  A    between atoms: _289  and  _292
REMARK  136  A    between atoms: _292  and  _293
REMARK  137  A    between atoms: _309  and  _310
REMARK  138  A    between atoms: _309  and  _312
REMARK  139  A    between atoms: _312  and  _313
REMARK  140  A    between atoms: _316  and  _317
REMARK  141  A    between atoms: _317  and  _318
REMARK  142  A    between atoms: _317  and  _320
REMARK  143  A    between atoms: _322  and  _323
REMARK  144  A    between atoms: _323  and  _324
REMARK  145  A    between atoms: _323  and  _326
REMARK  146  A    between atoms: _328  and  _329
REMARK  147  A    between atoms: _329  and  _330
REMARK  148  A    between atoms: _329  and  _332
REMARK  149  A    between atoms: _332  and  _333
REMARK  150  A    between atoms: _336  and  _337
REMARK  151  A    between atoms: _337  and  _338
REMARK  152  A    between atoms: _341  and  _342
REMARK  153  A    between atoms: _342  and  _343
REMARK  154  A    between atoms: _342  and  _345
REMARK  155  A    between atoms: _345  and  _346
REMARK  156  A    between atoms: _349  and  _350
REMARK  157  A    between atoms: _350  and  _351
REMARK  158  A    between atoms: _350  and  _353
REMARK  159  A    between atoms: _353  and  _354
REMARK  160  A    between atoms: _357  and  _358
REMARK  161  A    between atoms: _358  and  _359
REMARK  162  A    between atoms: _358  and  _361
REMARK  163  A    between atoms: _361  and  _362
REMARK  164  A    between atoms: _362  and  _363
REMARK  165  A    between atoms: _363  and  _364
REMARK  166  A    between atoms: _366  and  _367
REMARK  167  A    between atoms: _367  and  _368
REMARK  168  A    between atoms: _367  and  _370
REMARK  169  A    between atoms: _370  and  _371
REMARK  170  A    between atoms: _374  and  _375
REMARK  171  A    between atoms: _375  and  _376
REMARK  172  A    between atoms: _375  and  _378
REMARK  173  A    between atoms: _378  and  _379
REMARK  174  A    between atoms: _379  and  _380
REMARK  175  A    between atoms: _380  and  _381
REMARK  176  A    between atoms: _385  and  _386
REMARK  177  A    between atoms: _386  and  _387
REMARK  178  A    between atoms: _386  and  _389
REMARK  179  A    between atoms: _389  and  _390
REMARK  180  A    between atoms: _397  and  _398
REMARK  181  A    between atoms: _398  and  _399
REMARK  182  A    between atoms: _398  and  _401
REMARK  183  A    between atoms: _401  and  _402
REMARK  184  A    between atoms: _402  and  _403
REMARK  185  A    between atoms: _406  and  _407
REMARK  186  A    between atoms: _407  and  _408
REMARK  187  A    between atoms: _407  and  _410
REMARK  188  A    between atoms: _412  and  _413
REMARK  189  A    between atoms: _413  and  _414
REMARK  190  A    between atoms: _413  and  _416
REMARK  191  A    between atoms: _416  and  _417
REMARK  192  A    between atoms: _420  and  _421
REMARK  193  A    between atoms: _421  and  _422
REMARK  194  A    between atoms: _421  and  _424
REMARK  195  A    between atoms: _427  and  _428
REMARK  196  A    between atoms: _428  and  _429
REMARK  197  A    between atoms: _428  and  _431
REMARK  198  A    between atoms: _431  and  _432
REMARK  199  A    between atoms: _436  and  _437
REMARK  200  A    between atoms: _442  and  _443
REMARK  201  A    between atoms: _443  and  _444
REMARK  202  A    between atoms: _443  and  _446
REMARK  203  A    between atoms: _448  and  _449
REMARK  204  A    between atoms: _449  and  _450
REMARK  205  A    between atoms: _449  and  _452
REMARK  206  A    between atoms: _452  and  _453
REMARK  207  A    between atoms: _453  and  _454
REMARK  208  A    between atoms: _454  and  _455
REMARK  209  A    between atoms: _457  and  _458
REMARK  210  A    between atoms: _458  and  _459
REMARK  211  A    between atoms: _458  and  _461
REMARK  212  A    between atoms: _461  and  _462
REMARK  213  A    between atoms: _465  and  _466
REMARK  214  A    between atoms: _466  and  _467
REMARK  215  A    between atoms: _466  and  _469
REMARK  216  A    between atoms: _469  and  _470
REMARK  217  A    between atoms: _473  and  _474
REMARK  218  A    between atoms: _474  and  _475
REMARK  219  A    between atoms: _474  and  _477
REMARK  220  A    between atoms: _479  and  _480
REMARK  221  A    between atoms: _480  and  _481
REMARK  222  A    between atoms: _483  and  _484
REMARK  223  A    between atoms: _484  and  _485
REMARK  224  A    between atoms: _484  and  _487
REMARK  225  A    between atoms: _487  and  _488
REMARK  226  A    between atoms: _488  and  _489
REMARK  227  A    between atoms: _489  and  _490
REMARK  228  A    between atoms: _492  and  _493
REMARK  229  A    between atoms: _493  and  _494
REMARK  230  A    between atoms: _493  and  _496
REMARK  231  A    between atoms: _496  and  _497
REMARK  232  A    between atoms: _497  and  _498
REMARK  233  A    between atoms: _501  and  _502
REMARK  234  A    between atoms: _502  and  _503
REMARK  235  A    between atoms: _502  and  _505
REMARK  236  A    between atoms: _505  and  _506
REMARK  237  A    between atoms: _509  and  _510
REMARK  238  A    between atoms: _510  and  _511
REMARK  239  A    between atoms: _510  and  _513
REMARK  240  A    between atoms: _513  and  _514
REMARK  241  A    between atoms: _519  and  _520
REMARK  242  A    between atoms: _520  and  _521
REMARK  243  A    between atoms: _520  and  _523
REMARK  244  A    between atoms: _523  and  _524
REMARK  245  A    between atoms: _527  and  _528
REMARK  246  A    between atoms: _528  and  _529
REMARK  247  A    between atoms: _528  and  _531
REMARK  248  A    between atoms: _531  and  _532
REMARK  249  A    between atoms: _535  and  _536
REMARK  250  A    between atoms: _536  and  _537
REMARK  251  A    between atoms: _536  and  _539
REMARK  252  A    between atoms: _539  and  _540
REMARK  253  A    between atoms: _543  and  _544
REMARK  254  A    between atoms: _544  and  _545
REMARK  255  A    between atoms: _544  and  _547
REMARK  256  A    between atoms: _547  and  _548
REMARK  257  A    between atoms: _552  and  _553
REMARK  258  A    between atoms: _558  and  _559
REMARK  259  A    between atoms: _559  and  _560
REMARK  260  A    between atoms: _559  and  _562
REMARK  261  A    between atoms: _562  and  _563
REMARK  262  A    between atoms: _566  and  _567
REMARK  263  A    between atoms: _567  and  _568
REMARK  264  A    between atoms: _567  and  _570
REMARK  265  A    between atoms: _570  and  _571
REMARK  266  A    between atoms: _571  and  _572
REMARK  267  A    between atoms: _572  and  _573
REMARK  268  A    between atoms: _575  and  _576
REMARK  269  A    between atoms: _576  and  _577
REMARK  270  A    between atoms: _576  and  _579
REMARK  271  A    between atoms: _579  and  _580
REMARK  272  A    between atoms: _580  and  _581
REMARK  273  A    between atoms: _584  and  _585
REMARK  274  A    between atoms: _585  and  _586
REMARK  275  A    between atoms: _585  and  _588
REMARK  276  A    between atoms: _588  and  _589
REMARK  277  A    between atoms: _592  and  _593
REMARK  278  A    between atoms: _593  and  _594
REMARK  279  A    between atoms: _593  and  _596
REMARK  280  A    between atoms: _596  and  _597
REMARK  281  A    between atoms: _597  and  _598
REMARK  282  A    between atoms: _598  and  _599
REMARK  283  A    between atoms: _603  and  _604
REMARK  284  A    between atoms: _604  and  _605
REMARK  285  A    between atoms: _604  and  _607
REMARK  286  A    between atoms: _610  and  _611
REMARK  287  A    between atoms: _611  and  _612
REMARK  288  A    between atoms: _611  and  _614
REMARK  289  A    between atoms: _614  and  _615
REMARK  290  A    between atoms: _618  and  _619
REMARK  291  A    between atoms: _619  and  _620
REMARK  292  A    between atoms: _619  and  _622
REMARK  293  A    between atoms: _625  and  _626
REMARK  294  A    between atoms: _626  and  _627
REMARK  295  A    between atoms: _626  and  _629
REMARK  296  A    between atoms: _629  and  _630
REMARK  297  A    between atoms: _633  and  _634
REMARK  298  A    between atoms: _634  and  _635
REMARK  299  A    between atoms: _634  and  _637
REMARK  300  A    between atoms: _640  and  _641
REMARK  301  A    between atoms: _641  and  _642
REMARK  302  A    between atoms: _641  and  _644
REMARK  303  A    between atoms: _644  and  _645
REMARK  304  A    between atoms: _648  and  _649
REMARK  305  A    between atoms: _649  and  _650
REMARK  306  A    between atoms: _649  and  _652
REMARK  307  A    between atoms: _655  and  _656
REMARK  308  A    between atoms: _656  and  _657
REMARK  309  A    between atoms: _659  and  _660
REMARK  310  A    between atoms: _660  and  _661
REMARK  311  A    between atoms: _660  and  _663
REMARK  312  A    between atoms: _663  and  _664
REMARK  313  A    between atoms: _667  and  _668
REMARK  314  A    between atoms: _668  and  _669
REMARK  315  A    between atoms: _671  and  _672
REMARK  316  A    between atoms: _672  and  _673
REMARK  317  A    between atoms: _672  and  _675
REMARK  318  A    between atoms: _675  and  _676
REMARK  319  A    between atoms: _676  and  _677
REMARK  320  A    between atoms: _679  and  _680
REMARK  321  A    between atoms: _680  and  _681
REMARK  322  A    between atoms: _680  and  _683
REMARK  323  A    between atoms: _686  and  _687
REMARK  324  A    between atoms: _687  and  _688
REMARK  325  A    between atoms: _687  and  _690
REMARK  326  A    between atoms: _690  and  _691
REMARK  327  A    between atoms: _691  and  _692
REMARK  328  A    between atoms: _692  and  _693
REMARK  329  A    between atoms: _695  and  _696
REMARK  330  A    between atoms: _696  and  _697
REMARK  331  A    between atoms: _700  and  _701
REMARK  332  A    between atoms: _701  and  _702
REMARK  333  A    between atoms: _701  and  _704
REMARK  334  A    between atoms: _704  and  _705
REMARK  335  A    between atoms: _708  and  _709
REMARK  336  A    between atoms: _709  and  _710
REMARK  337  A    between atoms: _709  and  _712
REMARK  338  A    between atoms: _712  and  _713
REMARK  339  A    between atoms: _716  and  _717
REMARK  340  A    between atoms: _717  and  _720
REMARK  341  A    between atoms: _720  and  _721
REMARK  342  A    between atoms: _733  and  _734
REMARK  343  A    between atoms: _733  and  _735
REMARK  344  A    between atoms: _741  and  _744
REMARK  345  A    between atoms: _744  and  _745
REMARK  346  A    between atoms: _758  and  _759
REMARK  347  A    between atoms: _758  and  _761
REMARK  348  A    between atoms: _759  and  _760
REMARK  349  A    between atoms: _765  and  _766
REMARK  350  A    between atoms: _768  and  _769
REMARK  351  A    between atoms: _769  and  _770
REMARK  352  A    between atoms: _769  and  _772
REMARK  353  A    between atoms: _775  and  _776
REMARK  354  A    between atoms: _776  and  _777
REMARK  355  A    between atoms: _776  and  _779
REMARK  356  A    between atoms: _779  and  _780
REMARK  357  A    between atoms: _783  and  _784
REMARK  358  A    between atoms: _784  and  _785
REMARK  359  A    between atoms: _788  and  _789
REMARK  360  A    between atoms: _789  and  _790
REMARK  361  A    between atoms: _789  and  _792
REMARK  362  A    between atoms: _792  and  _793
REMARK  363  A    between atoms: _793  and  _794
REMARK  364  A    between atoms: _794  and  _795
REMARK  365  A    between atoms: _797  and  _798
REMARK  366  A    between atoms: _798  and  _799
REMARK  367  A    between atoms: _798  and  _801
REMARK  368  A    between atoms: _803  and  _804
REMARK  369  A    between atoms: _804  and  _805
REMARK  370  A    between atoms: _807  and  _808
REMARK  371  A    between atoms: _808  and  _809
REMARK  372  A    between atoms: _808  and  _811
REMARK  373  A    between atoms: _814  and  _815
REMARK  374  A    between atoms: _815  and  _816
REMARK  375  A    between atoms: _815  and  _818
REMARK  376  A    between atoms: _818  and  _819
REMARK  377  A    between atoms: _819  and  _820
REMARK  378  A    between atoms: _820  and  _821
REMARK  379  A    between atoms: _823  and  _824
REMARK  380  A    between atoms: _824  and  _825
REMARK  381  A    between atoms: _828  and  _829
REMARK  382  A    between atoms: _829  and  _830
REMARK  383  A    between atoms: _829  and  _832
REMARK  384  A    between atoms: _832  and  _833
REMARK  385  A    between atoms: _839  and  _840
REMARK  386  A    between atoms: _840  and  _841
REMARK  387  A    between atoms: _840  and  _843
REMARK  388  A    between atoms: _843  and  _844
REMARK  389  A    between atoms: _844  and  _845
REMARK  390  A    between atoms: _847  and  _848
REMARK  391  A    between atoms: _848  and  _849
REMARK  392  A    between atoms: _848  and  _851
REMARK  393  A    between atoms: _851  and  _852
REMARK  394  A    between atoms: _852  and  _853
REMARK  395  A    between atoms: _856  and  _857
REMARK  396  A    between atoms: _857  and  _858
REMARK  397  A    between atoms: _861  and  _862
REMARK  398  A    between atoms: _862  and  _863
REMARK  399  A    between atoms: _862  and  _865
REMARK  400  A    between atoms: _865  and  _866
REMARK  401  A    between atoms: _869  and  _870
REMARK  402  A    between atoms: _870  and  _871
REMARK  403  A    between atoms: _870  and  _873
REMARK  404  A    between atoms: _873  and  _874
REMARK  405  A    between atoms: _874  and  _875
REMARK  406  A    between atoms: _878  and  _879
REMARK  407  A    between atoms: _879  and  _880
REMARK  408  A    between atoms: _883  and  _884
REMARK  409  A    between atoms: _884  and  _885
REMARK  410  A    between atoms: _887  and  _888
REMARK  411  A    between atoms: _888  and  _889
REMARK  412  A    between atoms: _892  and  _893
REMARK  413  A    between atoms: _893  and  _894
REMARK  414  A    between atoms: _893  and  _896
REMARK  415  A    between atoms: _896  and  _897
REMARK  416  A    between atoms: _900  and  _901
REMARK  417  A    between atoms: _901  and  _902
REMARK  418  A    between atoms: _901  and  _904
REMARK  419  A    between atoms: _904  and  _905
REMARK  420  A    between atoms: _908  and  _909
REMARK  421  A    between atoms: _909  and  _910
REMARK  422  A    between atoms: _909  and  _912
REMARK  423  A    between atoms: _914  and  _915
REMARK  424  A    between atoms: _915  and  _916
REMARK  425  A    between atoms: _915  and  _918
REMARK  426  A    between atoms: _918  and  _919
REMARK  427  A    between atoms: _919  and  _920
REMARK  428  A    between atoms: _922  and  _923
REMARK  429  A    between atoms: _923  and  _924
REMARK  430  A    between atoms: _923  and  _926
REMARK  431  A    between atoms: _926  and  _927
REMARK  432  A    between atoms: _930  and  _931
REMARK  433  A    between atoms: _931  and  _932
REMARK  434  A    between atoms: _934  and  _935
REMARK  435  A    between atoms: _935  and  _936
REMARK  436  A    between atoms: _935  and  _938
REMARK  437  A    between atoms: _938  and  _939
REMARK  438  A    between atoms: _939  and  _940
REMARK  439  A    between atoms: _943  and  _944
REMARK  440  A    between atoms: _944  and  _945
REMARK  441  A    between atoms: _944  and  _947
REMARK  442  A    between atoms: _947  and  _948
REMARK  443  A    between atoms: _954  and  _955
REMARK  444  A    between atoms: _955  and  _956
REMARK  445  A    between atoms: _958  and  _959
REMARK  446  A    between atoms: _959  and  _960
REMARK  447  A    between atoms: _959  and  _962
REMARK  448  A    between atoms: _965  and  _966
REMARK  449  A    between atoms: _966  and  _967
REMARK  450  A    between atoms: _969  and  _970
REMARK  451  A    between atoms: _970  and  _971
REMARK  452  A    between atoms: _970  and  _973
REMARK  453  A    between atoms: _973  and  _974
REMARK  454  A    between atoms: _980  and  _981
REMARK  455  A    between atoms: _981  and  _982
REMARK  456  A    between atoms: _981  and  _984
REMARK  457  A    between atoms: _984  and  _985
REMARK  458  A    between atoms: _992  and  _993
REMARK  459  A    between atoms: _993  and  _994
REMARK  460  A    between atoms: _993  and  _996
REMARK  461  A    between atoms: _998  and  _999
REMARK  462  A    between atoms: _999  and  _1000
REMARK  463  A    between atoms: _1003  and  _1004
REMARK  464  A    between atoms: _1004  and  _1005
REMARK  465  A    between atoms: _1004  and  _1007
REMARK  466  A    between atoms: _1007  and  _1008
REMARK  467  A    between atoms: _1015  and  _1016
REMARK  468  A    between atoms: _1016  and  _1017
REMARK  469  A    between atoms: _1016  and  _1019
REMARK  470  A    between atoms: _1019  and  _1020
REMARK  471  A    between atoms: _1023  and  _1024
REMARK  472  A    between atoms: _1024  and  _1025
REMARK  473  A    between atoms: _1024  and  _1027
REMARK  474  A    between atoms: _1030  and  _1031
REMARK  475  A    between atoms: _1031  and  _1032
REMARK  476  A    between atoms: _1035  and  _1036
REMARK  477  A    between atoms: _1036  and  _1037
REMARK  478  A    between atoms: _1036  and  _1039
REMARK  479  A    between atoms: _1039  and  _1040
REMARK  480  A    between atoms: _1040  and  _1041
REMARK  481  A    between atoms: _1044  and  _1045
REMARK  482  A    between atoms: _1045  and  _1046
REMARK  483  A    between atoms: _1045  and  _1048
REMARK  484  A    between atoms: _1048  and  _1049
REMARK  485  A    between atoms: _1049  and  _1050
REMARK  486  A    between atoms: _1050  and  _1051
REMARK  487  A    between atoms: _1053  and  _1054
REMARK  488  A    between atoms: _1054  and  _1055
REMARK  489  A    between atoms: _1054  and  _1057
REMARK  490  A    between atoms: _1060  and  _1061
REMARK  491  A    between atoms: _1061  and  _1062
REMARK  492  A    between atoms: _1061  and  _1064
REMARK  493  A    between atoms: _1067  and  _1068
REMARK  494  A    between atoms: _1068  and  _1069
REMARK  495  A    between atoms: _1068  and  _1071
REMARK  496  A    between atoms: _1074  and  _1075
REMARK  497  A    between atoms: _1075  and  _1076
REMARK  498  A    between atoms: _1075  and  _1078
REMARK  499  A    between atoms: _1078  and  _1079
REMARK  500  A    between atoms: _1082  and  _1083
REMARK  501  A    between atoms: _1083  and  _1084
REMARK  502  A    between atoms: _1083  and  _1086
REMARK  503  A    between atoms: _1089  and  _1090
REMARK  504  A    between atoms: _1090  and  _1091
REMARK  505  A    between atoms: _1090  and  _1093
REMARK  506  A    between atoms: _1093  and  _1094
REMARK  507  A    between atoms: _1094  and  _1095
REMARK  508  A    between atoms: _1095  and  _1096
REMARK  509  A    between atoms: _1098  and  _1099
REMARK  510  A    between atoms: _1099  and  _1100
REMARK  511  A    between atoms: _1099  and  _1102
REMARK  512  A    between atoms: _1102  and  _1103
REMARK  513  A    between atoms: _1108  and  _1109
REMARK  514  A    between atoms: _1109  and  _1110
REMARK  515  A    between atoms: _1109  and  _1112
REMARK  516  A    between atoms: _1112  and  _1113
REMARK  517  A    between atoms: _1116  and  _1117
REMARK  518  A    between atoms: _1117  and  _1118
REMARK  519  A    between atoms: _1117  and  _1120
REMARK  520  A    between atoms: _1120  and  _1121
REMARK  521  A    between atoms: _1124  and  _1125
REMARK  522  A    between atoms: _1125  and  _1126
REMARK  523  A    between atoms: _1125  and  _1128
REMARK  524  A    between atoms: _1128  and  _1129
REMARK  525  A    between atoms: _1132  and  _1133
REMARK  526  A    between atoms: _1133  and  _1134
REMARK  527  A    between atoms: _1133  and  _1136
REMARK  528  A    between atoms: _1136  and  _1137
REMARK  529  A    between atoms: _1137  and  _1138
REMARK  530  A    between atoms: _1141  and  _1142
REMARK  531  A    between atoms: _1142  and  _1143
REMARK  532  A    between atoms: _1142  and  _1145
REMARK  533  A    between atoms: _1145  and  _1146
REMARK  534  A    between atoms: _1146  and  _1147
REMARK  535  A    between atoms: _1150  and  _1151
REMARK  536  A    between atoms: _1151  and  _1152
REMARK  537  A    between atoms: _1151  and  _1154
REMARK  538  A    between atoms: _1154  and  _1155
REMARK  539  A    between atoms: _1162  and  _1163
REMARK  540  A    between atoms: _1163  and  _1164
REMARK  541  A    between atoms: _1167  and  _1168
REMARK  542  A    between atoms: _1168  and  _1169
REMARK  543  A    between atoms: _1168  and  _1171
REMARK  544  A    between atoms: _1171  and  _1172
REMARK  545  A    between atoms: _1181  and  _1182
REMARK  546  A    between atoms: _1182  and  _1183
REMARK  547  A    between atoms: _1182  and  _1185
REMARK  548  A    between atoms: _1185  and  _1186
REMARK  549  A    between atoms: _1186  and  _1187
REMARK  550  A    between atoms: _1190  and  _1191
REMARK  551  A    between atoms: _1191  and  _1192
REMARK  552  A    between atoms: _1191  and  _1194
REMARK  553  A    between atoms: _1196  and  _1197
REMARK  554  A    between atoms: _1197  and  _1198
REMARK  555  A    between atoms: _1197  and  _1200
REMARK  556  A    between atoms: _1202  and  _1203
REMARK  557  A    between atoms: _1203  and  _1204
REMARK  558  A    between atoms: _1207  and  _1208
REMARK  559  A    between atoms: _1208  and  _1209
REMARK  560  A    between atoms: _1211  and  _1212
REMARK  561  A    between atoms: _1212  and  _1213
REMARK  562  A    between atoms: _1215  and  _1216
REMARK  563  A    between atoms: _1216  and  _1217
REMARK  564  A    between atoms: _1216  and  _1219
REMARK  565  A    between atoms: _1221  and  _1222
REMARK  566  A    between atoms: _1222  and  _1223
REMARK  567  A    between atoms: _1222  and  _1225
REMARK  568  A    between atoms: _1225  and  _1226
REMARK  569  A    between atoms: _1232  and  _1233
REMARK  570  A    between atoms: _1233  and  _1234
REMARK  571  A    between atoms: _1233  and  _1236
REMARK  572  A    between atoms: _1239  and  _1240
REMARK  573  A    between atoms: _1240  and  _1241
REMARK  574  A    between atoms: _1240  and  _1243
REMARK  575  A    between atoms: _1247  and  _1249
REMARK  576  A    between atoms: _1247  and  _1252
REMARK  577  A    between atoms: _1251  and  _1252
REMARK  578  A    between atoms: _1251  and  _1254
REMARK  579  A    between atoms: _1253  and  _1254
REMARK  580  A    between atoms: _1253  and  _1256
REMARK  581  A    between atoms: _1254  and  _1255
REMARK  582  A    between atoms: _1255  and  _1257
REMARK  583  A    between atoms: _1256  and  _1258
REMARK  584  A    between atoms: _1265  and  _1266
REMARK  585  A    between atoms: _1266  and  _1267
REMARK  586  A    between atoms: _1266  and  _1269
REMARK  587  A    between atoms: _1272  and  _1273
REMARK  588  A    between atoms: _1273  and  _1274
REMARK  589  A    between atoms: _1273  and  _1276
REMARK  590  A    between atoms: _1276  and  _1277
REMARK  591  A    between atoms: _1280  and  _1281
REMARK  592  A    between atoms: _1281  and  _1282
REMARK  593  A    between atoms: _1281  and  _1284
REMARK  594  A    between atoms: _1287  and  _1288
REMARK  595  A    between atoms: _1288  and  _1289
REMARK  596  A    between atoms: _1291  and  _1292
REMARK  597  A    between atoms: _1292  and  _1293
REMARK  598  A    between atoms: _1292  and  _1295
REMARK  599  A    between atoms: _1295  and  _1296
REMARK  600  A    between atoms: _1296  and  _1297
REMARK  601  A    between atoms: _1301  and  _1302
REMARK  602  A    between atoms: _1307  and  _1308
REMARK  603  A    between atoms: _1308  and  _1309
REMARK  604  A    between atoms: _1308  and  _1311
REMARK  605  A    between atoms: _1311  and  _1312
REMARK  606  A    between atoms: _1312  and  _1313
REMARK  607  A    between atoms: _1315  and  _1316
REMARK  608  A    between atoms: _1316  and  _1317
REMARK  609  A    between atoms: _1319  and  _1320
REMARK  610  A    between atoms: _1320  and  _1321
REMARK  611  A    between atoms: _1320  and  _1323
REMARK  612  A    between atoms: _1323  and  _1324
REMARK  613  A    between atoms: _1324  and  _1325
REMARK  614  A    between atoms: _1325  and  _1326
REMARK  615  A    between atoms: _1330  and  _1331
REMARK  616  A    between atoms: _1331  and  _1332
REMARK  617  A    between atoms: _1334  and  _1335
REMARK  618  A    between atoms: _1335  and  _1336
REMARK  619  A    between atoms: _1335  and  _1338
REMARK  620  A    between atoms: _1341  and  _1342
REMARK  621  A    between atoms: _1342  and  _1343
REMARK  622  A    between atoms: _1342  and  _1345
REMARK  623  A    between atoms: _1345  and  _1346
REMARK  624  A    between atoms: _1346  and  _1347
REMARK  625  A    between atoms: _1347  and  _1348
REMARK  626  A    between atoms: _1350  and  _1351
REMARK  627  A    between atoms: _1351  and  _1352
REMARK  628  A    between atoms: _1351  and  _1354
REMARK  629  A    between atoms: _1357  and  _1358
REMARK  630  A    between atoms: _1358  and  _1359
REMARK  631  A    between atoms: _1358  and  _1361
REMARK  632  A    between atoms: _1361  and  _1362
REMARK  633  A    between atoms: _1365  and  _1366
REMARK  634  A    between atoms: _1366  and  _1367
REMARK  635  A    between atoms: _1366  and  _1369
REMARK  636  A    between atoms: _1369  and  _1370
REMARK  637  A    between atoms: _1373  and  _1374
REMARK  638  A    between atoms: _1374  and  _1375
REMARK  639  A    between atoms: _1374  and  _1377
REMARK  640  A    between atoms: _1377  and  _1378
REMARK  641  A    between atoms: _1383  and  _1384
REMARK  642  A    between atoms: _1384  and  _1385
REMARK  643  A    between atoms: _1384  and  _1387
REMARK  644  A    between atoms: _1387  and  _1388
REMARK  645  A    between atoms: _1391  and  _1392
REMARK  646  A    between atoms: _1392  and  _1393
REMARK  647  A    between atoms: _1392  and  _1395
REMARK  648  A    between atoms: _1395  and  _1396
REMARK  649  A    between atoms: _1396  and  _1397
REMARK  650  A    between atoms: _1397  and  _1398
REMARK  651  A    between atoms: _1400  and  _1401
REMARK  652  A    between atoms: _1401  and  _1402
REMARK  653  A    between atoms: _1401  and  _1404
REMARK  654  A    between atoms: _1404  and  _1405
REMARK  655  A    between atoms: _1405  and  _1406
REMARK  656  A    between atoms: _1409  and  _1410
REMARK  657  A    between atoms: _1410  and  _1411
REMARK  658  A    between atoms: _1410  and  _1413
REMARK  659  A    between atoms: _1413  and  _1414
REMARK  660  A    between atoms: _1417  and  _1418
REMARK  661  A    between atoms: _1418  and  _1419
REMARK  662  A    between atoms: _1418  and  _1421
REMARK  663  A    between atoms: _1421  and  _1422
REMARK  664  A    between atoms: _1422  and  _1423
REMARK  665  A    between atoms: _1426  and  _1427
REMARK  666  A    between atoms: _1427  and  _1428
REMARK  667  A    between atoms: _1427  and  _1430
REMARK  668  A    between atoms: _1433  and  _1434
REMARK  669  A    between atoms: _1434  and  _1435
REMARK  670  A    between atoms: _1434  and  _1437
REMARK  671  A    between atoms: _1437  and  _1438
REMARK  672  A    between atoms: _1438  and  _1439
REMARK  673  A    between atoms: _1442  and  _1443
REMARK  674  A    between atoms: _1443  and  _1444
REMARK  675  A    between atoms: _1443  and  _1446
REMARK  676  A    between atoms: _1446  and  _1447
REMARK  677  A    between atoms: _1454  and  _1455
REMARK  678  A    between atoms: _1455  and  _1456
REMARK  679  A    between atoms: _1455  and  _1458
REMARK  680  A    between atoms: _1458  and  _1459
REMARK  681  A    between atoms: _1462  and  _1463
REMARK  682  A    between atoms: _1463  and  _1464
REMARK  683  A    between atoms: _1463  and  _1466
REMARK  684  A    between atoms: _1466  and  _1467
REMARK  685  A    between atoms: _1467  and  _1468
REMARK  686  A    between atoms: _1471  and  _1472
REMARK  687  A    between atoms: _1472  and  _1473
REMARK  688  A    between atoms: _1472  and  _1475
REMARK  689  A    between atoms: _1475  and  _1476
REMARK  690  A    between atoms: _1476  and  _1477
REMARK  691  A    between atoms: _1480  and  _1481
REMARK  692  A    between atoms: _1481  and  _1482
REMARK  693  A    between atoms: _1481  and  _1484
REMARK  694  A    between atoms: _1484  and  _1485
REMARK  695  A    between atoms: _1485  and  _1486
REMARK  696  A    between atoms: _1486  and  _1487
REMARK  697  A    between atoms: _1491  and  _1492
REMARK  698  A    between atoms: _1492  and  _1493
REMARK  699  A    between atoms: _1492  and  _1495
REMARK  700  A    between atoms: _1495  and  _1496
REMARK  701  A    between atoms: _1496  and  _1497
REMARK  702  A    between atoms: _1497  and  _1498
REMARK  703  A    between atoms: _1502  and  _1503
REMARK  704  A    between atoms: _1503  and  _1504
REMARK  705  A    between atoms: _1503  and  _1506
REMARK  706  A    between atoms: _1506  and  _1507
REMARK  707  A    between atoms: _1510  and  _1511
REMARK  708  A    between atoms: _1511  and  _1512
REMARK  709  A    between atoms: _1511  and  _1514
REMARK  710  A    between atoms: _1514  and  _1515
REMARK  711  A    between atoms: _1515  and  _1516
REMARK  712  A    between atoms: _1516  and  _1517
REMARK  713  A    between atoms: _1519  and  _1520
REMARK  714  A    between atoms: _1520  and  _1521
REMARK  715  A    between atoms: _1520  and  _1523
REMARK  716  A    between atoms: _1523  and  _1524
REMARK  717  A    between atoms: _1524  and  _1525
REMARK  718  A    between atoms: _1528  and  _1529
REMARK  719  A    between atoms: _1529  and  _1530
REMARK  720  A    between atoms: _1529  and  _1532
REMARK  721  A    between atoms: _1532  and  _1533
REMARK  722  A    between atoms: _1536  and  _1537
REMARK  723  A    between atoms: _1537  and  _1538
REMARK  724  A    between atoms: _1537  and  _1540
REMARK  725  A    between atoms: _1543  and  _1544
REMARK  726  A    between atoms: _1544  and  _1545
REMARK  727  A    between atoms: _1544  and  _1547
REMARK  728  A    between atoms: _1547  and  _1548
REMARK  729  A    between atoms: _1548  and  _1549
REMARK  730  A    between atoms: _1549  and  _1550
REMARK  731  A    between atoms: _1552  and  _1553
REMARK  732  A    between atoms: _1553  and  _1554
REMARK  733  A    between atoms: _1553  and  _1556
REMARK  734  A    between atoms: _1556  and  _1557
REMARK  735  A    between atoms: _1557  and  _1558
REMARK  736  A    between atoms: _1558  and  _1559
REMARK  737  A    between atoms: _1561  and  _1562
REMARK  738  A    between atoms: _1562  and  _1563
REMARK  739  A    between atoms: _1562  and  _1565
REMARK  740  A    between atoms: _1565  and  _1566
REMARK  741  A    between atoms: _1571  and  _1572
REMARK  742  A    between atoms: _1572  and  _1573
REMARK  743  A    between atoms: _1572  and  _1575
REMARK  744  A    between atoms: _1577  and  _1578
REMARK  745  A    between atoms: _1578  and  _1579
REMARK  746  A    between atoms: _1578  and  _1581
REMARK  747  A    between atoms: _1581  and  _1582
REMARK  748  A    between atoms: _1582  and  _1583
REMARK  749  A    between atoms: _1586  and  _1587
REMARK  750  A    between atoms: _1587  and  _1588
REMARK  751  A    between atoms: _1587  and  _1590
REMARK  752  A    between atoms: _1590  and  _1591
REMARK  753  A    between atoms: _1597  and  _1598
REMARK  754  A    between atoms: _1598  and  _1599
REMARK  755  A    between atoms: _1598  and  _1601
REMARK  756  A    between atoms: _1601  and  _1602
REMARK  757  A    between atoms: _1605  and  _1606
REMARK  758  A    between atoms: _1606  and  _1607
REMARK  759  A    between atoms: _1609  and  _1610
REMARK  760  A    between atoms: _1610  and  _1611
REMARK  761  A    between atoms: _1610  and  _1613
REMARK  762  A    between atoms: _1613  and  _1614
REMARK  763  A    between atoms: _1622  and  _1623
REMARK  764  A    between atoms: _1628  and  _1629
REMARK  765  A    between atoms: _1629  and  _1630
REMARK  766  A    between atoms: _1629  and  _1632
REMARK  767  A    between atoms: _1632  and  _1633
REMARK  768  A    between atoms: _1636  and  _1637
REMARK  769  A    between atoms: _1637  and  _1638
REMARK  770  A    between atoms: _1637  and  _1640
REMARK  771  A    between atoms: _1643  and  _1644
REMARK  772  A    between atoms: _1644  and  _1645
REMARK  773  A    between atoms: _1644  and  _1647
REMARK  774  A    between atoms: _1647  and  _1648
REMARK  775  A    between atoms: _1651  and  _1652
REMARK  776  A    between atoms: _1652  and  _1653
REMARK  777  A    between atoms: _1652  and  _1655
REMARK  778  A    between atoms: _1655  and  _1656
REMARK  779  A    between atoms: _1662  and  _1663
REMARK  780  A    between atoms: _1663  and  _1664
REMARK  781  A    between atoms: _1663  and  _1666
REMARK  782  A    between atoms: _1669  and  _1670
REMARK  783  A    between atoms: _1670  and  _1671
REMARK  784  A    between atoms: _1670  and  _1673
REMARK  785  A    between atoms: _1673  and  _1674
REMARK  786  A    between atoms: _1674  and  _1675
REMARK                            x       y       z     vdW  Elec       q    Type
REMARK                         _______ _______ _______ _____ _____    ______ ____
ROOT
ATOM      1  N   UNL     1      -4.224   8.250  16.506  0.00  0.00    +0.000 NA
ENDROOT
TORSDOF 0
REMARK  Name = /Users/mlugowska/PhD/ML_residence_time_prediction/protein_files/5J64_protein.pdb
REMARK  786 active torsions:
REMARK  status: ('A' for Active; 'I' for Inactive)
REMARK    1  A    between atoms: _2  and  _3
REMARK    2  A    between atoms: _2  and  _5
REMARK    3  A    between atoms: _5  and  _6
REMARK    4  A    between atoms: _6  and  _7
REMARK    5  A    between atoms: _10  and  _11
REMARK    6  A    between atoms: _11  and  _12
REMARK    7  A    between atoms: _11  and  _14
REMARK    8  A    between atoms: _17  and  _18
REMARK    9  A    between atoms: _18  and  _19
REMARK   10  A    between atoms: _18  and  _21
REMARK   11  A    between atoms: _21  and  _22
REMARK   12  A    between atoms: _22  and  _23
REMARK   13  A    between atoms: _26  and  _27
REMARK   14  A    between atoms: _27  and  _28
REMARK   15  A    between atoms: _27  and  _30
REMARK   16  A    between atoms: _33  and  _34
REMARK   17  A    between atoms: _34  and  _35
REMARK   18  A    between atoms: _34  and  _37
REMARK   19  A    between atoms: _37  and  _38
REMARK   20  A    between atoms: _44  and  _45
REMARK   21  A    between atoms: _45  and  _46
REMARK   22  A    between atoms: _49  and  _50
REMARK   23  A    between atoms: _50  and  _51
REMARK   24  A    between atoms: _50  and  _53
REMARK   25  A    between atoms: _53  and  _54
REMARK   26  A    between atoms: _60  and  _61
REMARK   27  A    between atoms: _61  and  _62
REMARK   28  A    between atoms: _61  and  _64
REMARK   29  A    between atoms: _64  and  _65
REMARK   30  A    between atoms: _65  and  _66
REMARK   31  A    between atoms: _69  and  _70
REMARK   32  A    between atoms: _70  and  _71
REMARK   33  A    between atoms: _74  and  _75
REMARK   34  A    between atoms: _75  and  _76
REMARK   35  A    between atoms: _75  and  _78
REMARK   36  A    between atoms: _78  and  _79
REMARK   37  A    between atoms: _79  and  _80
REMARK   38  A    between atoms: _83  and  _84
REMARK   39  A    between atoms: _84  and  _85
REMARK   40  A    between atoms: _84  and  _87
REMARK   41  A    between atoms: _87  and  _88
REMARK   42  A    between atoms: _91  and  _92
REMARK   43  A    between atoms: _92  and  _93
REMARK   44  A    between atoms: _96  and  _97
REMARK   45  A    between atoms: _97  and  _98
REMARK   46  A    between atoms: _97  and  _100
REMARK   47  A    between atoms: _100  and  _101
REMARK   48  A    between atoms: _101  and  _102
REMARK   49  A    between atoms: _105  and  _106
REMARK   50  A    between atoms: _106  and  _107
REMARK   51  A    between atoms: _106  and  _109
REMARK   52  A    between atoms: _109  and  _110
REMARK   53  A    between atoms: _113  and  _114
REMARK   54  A    between atoms: _114  and  _115
REMARK   55  A    between atoms: _114  and  _117
REMARK   56  A    between atoms: _117  and  _118
REMARK   57  A    between atoms: _118  and  _119
REMARK   58  A    between atoms: _121  and  _122
REMARK   59  A    between atoms: _122  and  _123
REMARK   60  A    between atoms: _122  and  _125
REMARK   61  A    between atoms: _127  and  _128
REMARK   62  A    between atoms: _128  and  _129
REMARK   63  A    between atoms: _128  and  _131
REMARK   64  A    between atoms: _131  and  _132
REMARK   65  A    between atoms: _135  and  _136
REMARK   66  A    between atoms: _136  and  _137
REMARK   67  A    between atoms: _136  and  _139
REMARK   68  A    between atoms: _139  and  _140
REMARK   69  A    between atoms: _143  and  _144
REMARK   70  A    between atoms: _144  and  _145
REMARK   71  A    between atoms: _144  and  _147
REMARK   72  A    between atoms: _147  and  _148
REMARK   73  A    between atoms: _151  and  _152
REMARK   74  A    between atoms: _152  and  _153
REMARK   75  A    between atoms: _152  and  _155
REMARK   76  A    between atoms: _155  and  _156
REMARK   77  A    between atoms: _159  and  _160
REMARK   78  A    between atoms: _160  and  _161
REMARK   79  A    between atoms: _160  and  _163
REMARK   80  A    between atoms: _166  and  _167
REMARK   81  A    between atoms: _167  and  _170
REMARK   82  A    between atoms: _170  and  _171
REMARK   83  A    between atoms: _181  and  _183
REMARK   84  A    between atoms: _183  and  _184
REMARK   85  A    between atoms: _189  and  _194
REMARK   86  A    between atoms: _192  and  _195
REMARK   87  A    between atoms: _193  and  _194
REMARK   88  A    between atoms: _195  and  _196
REMARK   89  A    between atoms: _201  and  _202
REMARK   90  A    between atoms: _202  and  _203
REMARK   91  A    between atoms: _202  and  _205
REMARK   92  A    between atoms: _207  and  _208
REMARK   93  A    between atoms: _208  and  _209
REMARK   94  A    between atoms: _208  and  _211
REMARK   95  A    between atoms: _211  and  _212
REMARK   96  A    between atoms: _215  and  _216
REMARK   97  A    between atoms: _216  and  _217
REMARK   98  A    between atoms: _216  and  _219
REMARK   99  A    between atoms: _219  and  _220
REMARK  100  A    between atoms: _220  and  _221
REMARK  101  A    between atoms: _221  and  _222
REMARK  102  A    between atoms: _224  and  _225
REMARK  103  A    between atoms: _225  and  _226
REMARK  104  A    between atoms: _225  and  _228
REMARK  105  A    between atoms: _228  and  _229
REMARK  106  A    between atoms: _229  and  _230
REMARK  107  A    between atoms: _233  and  _234
REMARK  108  A    between atoms: _234  and  _235
REMARK  109  A    between atoms: _234  and  _237
REMARK  110  A    between atoms: _237  and  _238
REMARK  111  A    between atoms: _241  and  _242
REMARK  112  A    between atoms: _242  and  _243
REMARK  113  A    between atoms: _242  and  _245
REMARK  114  A    between atoms: _245  and  _246
REMARK  115  A    between atoms: _252  and  _253
REMARK  116  A    between atoms: _253  and  _254
REMARK  117  A    between atoms: _253  and  _256
REMARK  118  A    between atoms: _256  and  _257
REMARK  119  A    between atoms: _260  and  _261
REMARK  120  A    between atoms: _261  and  _262
REMARK  121  A    between atoms: _261  and  _264
REMARK  122  A    between atoms: _264  and  _265
REMARK  123  A    between atoms: _265  and  _266
REMARK  124  A    between atoms: _266  and  _267
REMARK  125  A    between atoms: _271  and  _272
REMARK  126  A    between atoms: _272  and  _273
REMARK  127  A    between atoms: _272  and  _275
REMARK  128  A    between atoms: _275  and  _276
REMARK  129  A    between atoms: _276  and  _277
REMARK  130  A    between atoms: _280  and  _281
REMARK  131  A    between atoms: _281  and  _282
REMARK  132  A    between atoms: _281  and  _284
REMARK  133  A    between atoms: _284  and  _285
REMARK  134  A    between atoms: _288  and  _289
REMARK  135  A    between atoms: _289  and  _292
REMARK  136  A    between atoms: _292  and  _293
REMARK  137  A    between atoms: _309  and  _310
REMARK  138  A    between atoms: _309  and  _312
REMARK  139  A    between atoms: _312  and  _313
REMARK  140  A    between atoms: _316  and  _317
REMARK  141  A    between atoms: _317  and  _318
REMARK  142  A    between atoms: _317  and  _320
REMARK  143  A    between atoms: _322  and  _323
REMARK  144  A    between atoms: _323  and  _324
REMARK  145  A    between atoms: _323  and  _326
REMARK  146  A    between atoms: _328  and  _329
REMARK  147  A    between atoms: _329  and  _330
REMARK  148  A    between atoms: _329  and  _332
REMARK  149  A    between atoms: _332  and  _333
REMARK  150  A    between atoms: _336  and  _337
REMARK  151  A    between atoms: _337  and  _338
REMARK  152  A    between atoms: _341  and  _342
REMARK  153  A    between atoms: _342  and  _343
REMARK  154  A    between atoms: _342  and  _345
REMARK  155  A    between atoms: _345  and  _346
REMARK  156  A    between atoms: _349  and  _350
REMARK  157  A    between atoms: _350  and  _351
REMARK  158  A    between atoms: _350  and  _353
REMARK  159  A    between atoms: _353  and  _354
REMARK  160  A    between atoms: _357  and  _358
REMARK  161  A    between atoms: _358  and  _359
REMARK  162  A    between atoms: _358  and  _361
REMARK  163  A    between atoms: _361  and  _362
REMARK  164  A    between atoms: _362  and  _363
REMARK  165  A    between atoms: _363  and  _364
REMARK  166  A    between atoms: _366  and  _367
REMARK  167  A    between atoms: _367  and  _368
REMARK  168  A    between atoms: _367  and  _370
REMARK  169  A    between atoms: _370  and  _371
REMARK  170  A    between atoms: _374  and  _375
REMARK  171  A    between atoms: _375  and  _376
REMARK  172  A    between atoms: _375  and  _378
REMARK  173  A    between atoms: _378  and  _379
REMARK  174  A    between atoms: _379  and  _380
REMARK  175  A    between atoms: _380  and  _381
REMARK  176  A    between atoms: _385  and  _386
REMARK  177  A    between atoms: _386  and  _387
REMARK  178  A    between atoms: _386  and  _389
REMARK  179  A    between atoms: _389  and  _390
REMARK  180  A    between atoms: _397  and  _398
REMARK  181  A    between atoms: _398  and  _399
REMARK  182  A    between atoms: _398  and  _401
REMARK  183  A    between atoms: _401  and  _402
REMARK  184  A    between atoms: _402  and  _403
REMARK  185  A    between atoms: _406  and  _407
REMARK  186  A    between atoms: _407  and  _408
REMARK  187  A    between atoms: _407  and  _410
REMARK  188  A    between atoms: _412  and  _413
REMARK  189  A    between atoms: _413  and  _414
REMARK  190  A    between atoms: _413  and  _416
REMARK  191  A    between atoms: _416  and  _417
REMARK  192  A    between atoms: _420  and  _421
REMARK  193  A    between atoms: _421  and  _422
REMARK  194  A    between atoms: _421  and  _424
REMARK  195  A    between atoms: _427  and  _428
REMARK  196  A    between atoms: _428  and  _429
REMARK  197  A    between atoms: _428  and  _431
REMARK  198  A    between atoms: _431  and  _432
REMARK  199  A    between atoms: _436  and  _437
REMARK  200  A    between atoms: _442  and  _443
REMARK  201  A    between atoms: _443  and  _444
REMARK  202  A    between atoms: _443  and  _446
REMARK  203  A    between atoms: _448  and  _449
REMARK  204  A    between atoms: _449  and  _450
REMARK  205  A    between atoms: _449  and  _452
REMARK  206  A    between atoms: _452  and  _453
REMARK  207  A    between atoms: _453  and  _454
REMARK  208  A    between atoms: _454  and  _455
REMARK  209  A    between atoms: _457  and  _458
REMARK  210  A    between atoms: _458  and  _459
REMARK  211  A    between atoms: _458  and  _461
REMARK  212  A    between atoms: _461  and  _462
REMARK  213  A    between atoms: _465  and  _466
REMARK  214  A    between atoms: _466  and  _467
REMARK  215  A    between atoms: _466  and  _469
REMARK  216  A    between atoms: _469  and  _470
REMARK  217  A    between atoms: _473  and  _474
REMARK  218  A    between atoms: _474  and  _475
REMARK  219  A    between atoms: _474  and  _477
REMARK  220  A    between atoms: _479  and  _480
REMARK  221  A    between atoms: _480  and  _481
REMARK  222  A    between atoms: _483  and  _484
REMARK  223  A    between atoms: _484  and  _485
REMARK  224  A    between atoms: _484  and  _487
REMARK  225  A    between atoms: _487  and  _488
REMARK  226  A    between atoms: _488  and  _489
REMARK  227  A    between atoms: _489  and  _490
REMARK  228  A    between atoms: _492  and  _493
REMARK  229  A    between atoms: _493  and  _494
REMARK  230  A    between atoms: _493  and  _496
REMARK  231  A    between atoms: _496  and  _497
REMARK  232  A    between atoms: _497  and  _498
REMARK  233  A    between atoms: _501  and  _502
REMARK  234  A    between atoms: _502  and  _503
REMARK  235  A    between atoms: _502  and  _505
REMARK  236  A    between atoms: _505  and  _506
REMARK  237  A    between atoms: _509  and  _510
REMARK  238  A    between atoms: _510  and  _511
REMARK  239  A    between atoms: _510  and  _513
REMARK  240  A    between atoms: _513  and  _514
REMARK  241  A    between atoms: _519  and  _520
REMARK  242  A    between atoms: _520  and  _521
REMARK  243  A    between atoms: _520  and  _523
REMARK  244  A    between atoms: _523  and  _524
REMARK  245  A    between atoms: _527  and  _528
REMARK  246  A    between atoms: _528  and  _529
REMARK  247  A    between atoms: _528  and  _531
REMARK  248  A    between atoms: _531  and  _532
REMARK  249  A    between atoms: _535  and  _536
REMARK  250  A    between atoms: _536  and  _537
REMARK  251  A    between atoms: _536  and  _539
REMARK  252  A    between atoms: _539  and  _540
REMARK  253  A    between atoms: _543  and  _544
REMARK  254  A    between atoms: _544  and  _545
REMARK  255  A    between atoms: _544  and  _547
REMARK  256  A    between atoms: _547  and  _548
REMARK  257  A    between atoms: _552  and  _553
REMARK  258  A    between atoms: _558  and  _559
REMARK  259  A    between atoms: _559  and  _560
REMARK  260  A    between atoms: _559  and  _562
REMARK  261  A    between atoms: _562  and  _563
REMARK  262  A    between atoms: _566  and  _567
REMARK  263  A    between atoms: _567  and  _568
REMARK  264  A    between atoms: _567  and  _570
REMARK  265  A    between atoms: _570  and  _571
REMARK  266  A    between atoms: _571  and  _572
REMARK  267  A    between atoms: _572  and  _573
REMARK  268  A    between atoms: _575  and  _576
REMARK  269  A    between atoms: _576  and  _577
REMARK  270  A    between atoms: _576  and  _579
REMARK  271  A    between atoms: _579  and  _580
REMARK  272  A    between atoms: _580  and  _581
REMARK  273  A    between atoms: _584  and  _585
REMARK  274  A    between atoms: _585  and  _586
REMARK  275  A    between atoms: _585  and  _588
REMARK  276  A    between atoms: _588  and  _589
REMARK  277  A    between atoms: _592  and  _593
REMARK  278  A    between atoms: _593  and  _594
REMARK  279  A    between atoms: _593  and  _596
REMARK  280  A    between atoms: _596  and  _597
REMARK  281  A    between atoms: _597  and  _598
REMARK  282  A    between atoms: _598  and  _599
REMARK  283  A    between atoms: _603  and  _604
REMARK  284  A    between atoms: _604  and  _605
REMARK  285  A    between atoms: _604  and  _607
REMARK  286  A    between atoms: _610  and  _611
REMARK  287  A    between atoms: _611  and  _612
REMARK  288  A    between atoms: _611  and  _614
REMARK  289  A    between atoms: _614  and  _615
REMARK  290  A    between atoms: _618  and  _619
REMARK  291  A    between atoms: _619  and  _620
REMARK  292  A    between atoms: _619  and  _622
REMARK  293  A    between atoms: _625  and  _626
REMARK  294  A    between atoms: _626  and  _627
REMARK  295  A    between atoms: _626  and  _629
REMARK  296  A    between atoms: _629  and  _630
REMARK  297  A    between atoms: _633  and  _634
REMARK  298  A    between atoms: _634  and  _635
REMARK  299  A    between atoms: _634  and  _637
REMARK  300  A    between atoms: _640  and  _641
REMARK  301  A    between atoms: _641  and  _642
REMARK  302  A    between atoms: _641  and  _644
REMARK  303  A    between atoms: _644  and  _645
REMARK  304  A    between atoms: _648  and  _649
REMARK  305  A    between atoms: _649  and  _650
REMARK  306  A    between atoms: _649  and  _652
REMARK  307  A    between atoms: _655  and  _656
REMARK  308  A    between atoms: _656  and  _657
REMARK  309  A    between atoms: _659  and  _660
REMARK  310  A    between atoms: _660  and  _661
REMARK  311  A    between atoms: _660  and  _663
REMARK  312  A    between atoms: _663  and  _664
REMARK  313  A    between atoms: _667  and  _668
REMARK  314  A    between atoms: _668  and  _669
REMARK  315  A    between atoms: _671  and  _672
REMARK  316  A    between atoms: _672  and  _673
REMARK  317  A    between atoms: _672  and  _675
REMARK  318  A    between atoms: _675  and  _676
REMARK  319  A    between atoms: _676  and  _677
REMARK  320  A    between atoms: _679  and  _680
REMARK  321  A    between atoms: _680  and  _681
REMARK  322  A    between atoms: _680  and  _683
REMARK  323  A    between atoms: _686  and  _687
REMARK  324  A    between atoms: _687  and  _688
REMARK  325  A    between atoms: _687  and  _690
REMARK  326  A    between atoms: _690  and  _691
REMARK  327  A    between atoms: _691  and  _692
REMARK  328  A    between atoms: _692  and  _693
REMARK  329  A    between atoms: _695  and  _696
REMARK  330  A    between atoms: _696  and  _697
REMARK  331  A    between atoms: _700  and  _701
REMARK  332  A    between atoms: _701  and  _702
REMARK  333  A    between atoms: _701  and  _704
REMARK  334  A    between atoms: _704  and  _705
REMARK  335  A    between atoms: _708  and  _709
REMARK  336  A    between atoms: _709  and  _710
REMARK  337  A    between atoms: _709  and  _712
REMARK  338  A    between atoms: _712  and  _713
REMARK  339  A    between atoms: _716  and  _717
REMARK  340  A    between atoms: _717  and  _720
REMARK  341  A    between atoms: _720  and  _721
REMARK  342  A    between atoms: _733  and  _734
REMARK  343  A    between atoms: _733  and  _735
REMARK  344  A    between atoms: _741  and  _744
REMARK  345  A    between atoms: _744  and  _745
REMARK  346  A    between atoms: _758  and  _759
REMARK  347  A    between atoms: _758  and  _761
REMARK  348  A    between atoms: _759  and  _760
REMARK  349  A    between atoms: _765  and  _766
REMARK  350  A    between atoms: _768  and  _769
REMARK  351  A    between atoms: _769  and  _770
REMARK  352  A    between atoms: _769  and  _772
REMARK  353  A    between atoms: _775  and  _776
REMARK  354  A    between atoms: _776  and  _777
REMARK  355  A    between atoms: _776  and  _779
REMARK  356  A    between atoms: _779  and  _780
REMARK  357  A    between atoms: _783  and  _784
REMARK  358  A    between atoms: _784  and  _785
REMARK  359  A    between atoms: _788  and  _789
REMARK  360  A    between atoms: _789  and  _790
REMARK  361  A    between atoms: _789  and  _792
REMARK  362  A    between atoms: _792  and  _793
REMARK  363  A    between atoms: _793  and  _794
REMARK  364  A    between atoms: _794  and  _795
REMARK  365  A    between atoms: _797  and  _798
REMARK  366  A    between atoms: _798  and  _799
REMARK  367  A    between atoms: _798  and  _801
REMARK  368  A    between atoms: _803  and  _804
REMARK  369  A    between atoms: _804  and  _805
REMARK  370  A    between atoms: _807  and  _808
REMARK  371  A    between atoms: _808  and  _809
REMARK  372  A    between atoms: _808  and  _811
REMARK  373  A    between atoms: _814  and  _815
REMARK  374  A    between atoms: _815  and  _816
REMARK  375  A    between atoms: _815  and  _818
REMARK  376  A    between atoms: _818  and  _819
REMARK  377  A    between atoms: _819  and  _820
REMARK  378  A    between atoms: _820  and  _821
REMARK  379  A    between atoms: _823  and  _824
REMARK  380  A    between atoms: _824  and  _825
REMARK  381  A    between atoms: _828  and  _829
REMARK  382  A    between atoms: _829  and  _830
REMARK  383  A    between atoms: _829  and  _832
REMARK  384  A    between atoms: _832  and  _833
REMARK  385  A    between atoms: _839  and  _840
REMARK  386  A    between atoms: _840  and  _841
REMARK  387  A    between atoms: _840  and  _843
REMARK  388  A    between atoms: _843  and  _844
REMARK  389  A    between atoms: _844  and  _845
REMARK  390  A    between atoms: _847  and  _848
REMARK  391  A    between atoms: _848  and  _849
REMARK  392  A    between atoms: _848  and  _851
REMARK  393  A    between atoms: _851  and  _852
REMARK  394  A    between atoms: _852  and  _853
REMARK  395  A    between atoms: _856  and  _857
REMARK  396  A    between atoms: _857  and  _858
REMARK  397  A    between atoms: _861  and  _862
REMARK  398  A    between atoms: _862  and  _863
REMARK  399  A    between atoms: _862  and  _865
REMARK  400  A    between atoms: _865  and  _866
REMARK  401  A    between atoms: _869  and  _870
REMARK  402  A    between atoms: _870  and  _871
REMARK  403  A    between atoms: _870  and  _873
REMARK  404  A    between atoms: _873  and  _874
REMARK  405  A    between atoms: _874  and  _875
REMARK  406  A    between atoms: _878  and  _879
REMARK  407  A    between atoms: _879  and  _880
REMARK  408  A    between atoms: _883  and  _884
REMARK  409  A    between atoms: _884  and  _885
REMARK  410  A    between atoms: _887  and  _888
REMARK  411  A    between atoms: _888  and  _889
REMARK  412  A    between atoms: _892  and  _893
REMARK  413  A    between atoms: _893  and  _894
REMARK  414  A    between atoms: _893  and  _896
REMARK  415  A    between atoms: _896  and  _897
REMARK  416  A    between atoms: _900  and  _901
REMARK  417  A    between atoms: _901  and  _902
REMARK  418  A    between atoms: _901  and  _904
REMARK  419  A    between atoms: _904  and  _905
REMARK  420  A    between atoms: _908  and  _909
REMARK  421  A    between atoms: _909  and  _910
REMARK  422  A    between atoms: _909  and  _912
REMARK  423  A    between atoms: _914  and  _915
REMARK  424  A    between atoms: _915  and  _916
REMARK  425  A    between atoms: _915  and  _918
REMARK  426  A    between atoms: _918  and  _919
REMARK  427  A    between atoms: _919  and  _920
REMARK  428  A    between atoms: _922  and  _923
REMARK  429  A    between atoms: _923  and  _924
REMARK  430  A    between atoms: _923  and  _926
REMARK  431  A    between atoms: _926  and  _927
REMARK  432  A    between atoms: _930  and  _931
REMARK  433  A    between atoms: _931  and  _932
REMARK  434  A    between atoms: _934  and  _935
REMARK  435  A    between atoms: _935  and  _936
REMARK  436  A    between atoms: _935  and  _938
REMARK  437  A    between atoms: _938  and  _939
REMARK  438  A    between atoms: _939  and  _940
REMARK  439  A    between atoms: _943  and  _944
REMARK  440  A    between atoms: _944  and  _945
REMARK  441  A    between atoms: _944  and  _947
REMARK  442  A    between atoms: _947  and  _948
REMARK  443  A    between atoms: _954  and  _955
REMARK  444  A    between atoms: _955  and  _956
REMARK  445  A    between atoms: _958  and  _959
REMARK  446  A    between atoms: _959  and  _960
REMARK  447  A    between atoms: _959  and  _962
REMARK  448  A    between atoms: _965  and  _966
REMARK  449  A    between atoms: _966  and  _967
REMARK  450  A    between atoms: _969  and  _970
REMARK  451  A    between atoms: _970  and  _971
REMARK  452  A    between atoms: _970  and  _973
REMARK  453  A    between atoms: _973  and  _974
REMARK  454  A    between atoms: _980  and  _981
REMARK  455  A    between atoms: _981  and  _982
REMARK  456  A    between atoms: _981  and  _984
REMARK  457  A    between atoms: _984  and  _985
REMARK  458  A    between atoms: _992  and  _993
REMARK  459  A    between atoms: _993  and  _994
REMARK  460  A    between atoms: _993  and  _996
REMARK  461  A    between atoms: _998  and  _999
REMARK  462  A    between atoms: _999  and  _1000
REMARK  463  A    between atoms: _1003  and  _1004
REMARK  464  A    between atoms: _1004  and  _1005
REMARK  465  A    between atoms: _1004  and  _1007
REMARK  466  A    between atoms: _1007  and  _1008
REMARK  467  A    between atoms: _1015  and  _1016
REMARK  468  A    between atoms: _1016  and  _1017
REMARK  469  A    between atoms: _1016  and  _1019
REMARK  470  A    between atoms: _1019  and  _1020
REMARK  471  A    between atoms: _1023  and  _1024
REMARK  472  A    between atoms: _1024  and  _1025
REMARK  473  A    between atoms: _1024  and  _1027
REMARK  474  A    between atoms: _1030  and  _1031
REMARK  475  A    between atoms: _1031  and  _1032
REMARK  476  A    between atoms: _1035  and  _1036
REMARK  477  A    between atoms: _1036  and  _1037
REMARK  478  A    between atoms: _1036  and  _1039
REMARK  479  A    between atoms: _1039  and  _1040
REMARK  480  A    between atoms: _1040  and  _1041
REMARK  481  A    between atoms: _1044  and  _1045
REMARK  482  A    between atoms: _1045  and  _1046
REMARK  483  A    between atoms: _1045  and  _1048
REMARK  484  A    between atoms: _1048  and  _1049
REMARK  485  A    between atoms: _1049  and  _1050
REMARK  486  A    between atoms: _1050  and  _1051
REMARK  487  A    between atoms: _1053  and  _1054
REMARK  488  A    between atoms: _1054  and  _1055
REMARK  489  A    between atoms: _1054  and  _1057
REMARK  490  A    between atoms: _1060  and  _1061
REMARK  491  A    between atoms: _1061  and  _1062
REMARK  492  A    between atoms: _1061  and  _1064
REMARK  493  A    between atoms: _1067  and  _1068
REMARK  494  A    between atoms: _1068  and  _1069
REMARK  495  A    between atoms: _1068  and  _1071
REMARK  496  A    between atoms: _1074  and  _1075
REMARK  497  A    between atoms: _1075  and  _1076
REMARK  498  A    between atoms: _1075  and  _1078
REMARK  499  A    between atoms: _1078  and  _1079
REMARK  500  A    between atoms: _1082  and  _1083
REMARK  501  A    between atoms: _1083  and  _1084
REMARK  502  A    between atoms: _1083  and  _1086
REMARK  503  A    between atoms: _1089  and  _1090
REMARK  504  A    between atoms: _1090  and  _1091
REMARK  505  A    between atoms: _1090  and  _1093
REMARK  506  A    between atoms: _1093  and  _1094
REMARK  507  A    between atoms: _1094  and  _1095
REMARK  508  A    between atoms: _1095  and  _1096
REMARK  509  A    between atoms: _1098  and  _1099
REMARK  510  A    between atoms: _1099  and  _1100
REMARK  511  A    between atoms: _1099  and  _1102
REMARK  512  A    between atoms: _1102  and  _1103
REMARK  513  A    between atoms: _1108  and  _1109
REMARK  514  A    between atoms: _1109  and  _1110
REMARK  515  A    between atoms: _1109  and  _1112
REMARK  516  A    between atoms: _1112  and  _1113
REMARK  517  A    between atoms: _1116  and  _1117
REMARK  518  A    between atoms: _1117  and  _1118
REMARK  519  A    between atoms: _1117  and  _1120
REMARK  520  A    between atoms: _1120  and  _1121
REMARK  521  A    between atoms: _1124  and  _1125
REMARK  522  A    between atoms: _1125  and  _1126
REMARK  523  A    between atoms: _1125  and  _1128
REMARK  524  A    between atoms: _1128  and  _1129
REMARK  525  A    between atoms: _1132  and  _1133
REMARK  526  A    between atoms: _1133  and  _1134
REMARK  527  A    between atoms: _1133  and  _1136
REMARK  528  A    between atoms: _1136  and  _1137
REMARK  529  A    between atoms: _1137  and  _1138
REMARK  530  A    between atoms: _1141  and  _1142
REMARK  531  A    between atoms: _1142  and  _1143
REMARK  532  A    between atoms: _1142  and  _1145
REMARK  533  A    between atoms: _1145  and  _1146
REMARK  534  A    between atoms: _1146  and  _1147
REMARK  535  A    between atoms: _1150  and  _1151
REMARK  536  A    between atoms: _1151  and  _1152
REMARK  537  A    between atoms: _1151  and  _1154
REMARK  538  A    between atoms: _1154  and  _1155
REMARK  539  A    between atoms: _1162  and  _1163
REMARK  540  A    between atoms: _1163  and  _1164
REMARK  541  A    between atoms: _1167  and  _1168
REMARK  542  A    between atoms: _1168  and  _1169
REMARK  543  A    between atoms: _1168  and  _1171
REMARK  544  A    between atoms: _1171  and  _1172
REMARK  545  A    between atoms: _1181  and  _1182
REMARK  546  A    between atoms: _1182  and  _1183
REMARK  547  A    between atoms: _1182  and  _1185
REMARK  548  A    between atoms: _1185  and  _1186
REMARK  549  A    between atoms: _1186  and  _1187
REMARK  550  A    between atoms: _1190  and  _1191
REMARK  551  A    between atoms: _1191  and  _1192
REMARK  552  A    between atoms: _1191  and  _1194
REMARK  553  A    between atoms: _1196  and  _1197
REMARK  554  A    between atoms: _1197  and  _1198
REMARK  555  A    between atoms: _1197  and  _1200
REMARK  556  A    between atoms: _1202  and  _1203
REMARK  557  A    between atoms: _1203  and  _1204
REMARK  558  A    between atoms: _1207  and  _1208
REMARK  559  A    between atoms: _1208  and  _1209
REMARK  560  A    between atoms: _1211  and  _1212
REMARK  561  A    between atoms: _1212  and  _1213
REMARK  562  A    between atoms: _1215  and  _1216
REMARK  563  A    between atoms: _1216  and  _1217
REMARK  564  A    between atoms: _1216  and  _1219
REMARK  565  A    between atoms: _1221  and  _1222
REMARK  566  A    between atoms: _1222  and  _1223
REMARK  567  A    between atoms: _1222  and  _1225
REMARK  568  A    between atoms: _1225  and  _1226
REMARK  569  A    between atoms: _1232  and  _1233
REMARK  570  A    between atoms: _1233  and  _1234
REMARK  571  A    between atoms: _1233  and  _1236
REMARK  572  A    between atoms: _1239  and  _1240
REMARK  573  A    between atoms: _1240  and  _1241
REMARK  574  A    between atoms: _1240  and  _1243
REMARK  575  A    between atoms: _1247  and  _1249
REMARK  576  A    between atoms: _1247  and  _1252
REMARK  577  A    between atoms: _1251  and  _1252
REMARK  578  A    between atoms: _1251  and  _1254
REMARK  579  A    between atoms: _1253  and  _1254
REMARK  580  A    between atoms: _1253  and  _1256
REMARK  581  A    between atoms: _1254  and  _1255
REMARK  582  A    between atoms: _1255  and  _1257
REMARK  583  A    between atoms: _1256  and  _1258
REMARK  584  A    between atoms: _1265  and  _1266
REMARK  585  A    between atoms: _1266  and  _1267
REMARK  586  A    between atoms: _1266  and  _1269
REMARK  587  A    between atoms: _1272  and  _1273
REMARK  588  A    between atoms: _1273  and  _1274
REMARK  589  A    between atoms: _1273  and  _1276
REMARK  590  A    between atoms: _1276  and  _1277
REMARK  591  A    between atoms: _1280  and  _1281
REMARK  592  A    between atoms: _1281  and  _1282
REMARK  593  A    between atoms: _1281  and  _1284
REMARK  594  A    between atoms: _1287  and  _1288
REMARK  595  A    between atoms: _1288  and  _1289
REMARK  596  A    between atoms: _1291  and  _1292
REMARK  597  A    between atoms: _1292  and  _1293
REMARK  598  A    between atoms: _1292  and  _1295
REMARK  599  A    between atoms: _1295  and  _1296
REMARK  600  A    between atoms: _1296  and  _1297
REMARK  601  A    between atoms: _1301  and  _1302
REMARK  602  A    between atoms: _1307  and  _1308
REMARK  603  A    between atoms: _1308  and  _1309
REMARK  604  A    between atoms: _1308  and  _1311
REMARK  605  A    between atoms: _1311  and  _1312
REMARK  606  A    between atoms: _1312  and  _1313
REMARK  607  A    between atoms: _1315  and  _1316
REMARK  608  A    between atoms: _1316  and  _1317
REMARK  609  A    between atoms: _1319  and  _1320
REMARK  610  A    between atoms: _1320  and  _1321
REMARK  611  A    between atoms: _1320  and  _1323
REMARK  612  A    between atoms: _1323  and  _1324
REMARK  613  A    between atoms: _1324  and  _1325
REMARK  614  A    between atoms: _1325  and  _1326
REMARK  615  A    between atoms: _1330  and  _1331
REMARK  616  A    between atoms: _1331  and  _1332
REMARK  617  A    between atoms: _1334  and  _1335
REMARK  618  A    between atoms: _1335  and  _1336
REMARK  619  A    between atoms: _1335  and  _1338
REMARK  620  A    between atoms: _1341  and  _1342
REMARK  621  A    between atoms: _1342  and  _1343
REMARK  622  A    between atoms: _1342  and  _1345
REMARK  623  A    between atoms: _1345  and  _1346
REMARK  624  A    between atoms: _1346  and  _1347
REMARK  625  A    between atoms: _1347  and  _1348
REMARK  626  A    between atoms: _1350  and  _1351
REMARK  627  A    between atoms: _1351  and  _1352
REMARK  628  A    between atoms: _1351  and  _1354
REMARK  629  A    between atoms: _1357  and  _1358
REMARK  630  A    between atoms: _1358  and  _1359
REMARK  631  A    between atoms: _1358  and  _1361
REMARK  632  A    between atoms: _1361  and  _1362
REMARK  633  A    between atoms: _1365  and  _1366
REMARK  634  A    between atoms: _1366  and  _1367
REMARK  635  A    between atoms: _1366  and  _1369
REMARK  636  A    between atoms: _1369  and  _1370
REMARK  637  A    between atoms: _1373  and  _1374
REMARK  638  A    between atoms: _1374  and  _1375
REMARK  639  A    between atoms: _1374  and  _1377
REMARK  640  A    between atoms: _1377  and  _1378
REMARK  641  A    between atoms: _1383  and  _1384
REMARK  642  A    between atoms: _1384  and  _1385
REMARK  643  A    between atoms: _1384  and  _1387
REMARK  644  A    between atoms: _1387  and  _1388
REMARK  645  A    between atoms: _1391  and  _1392
REMARK  646  A    between atoms: _1392  and  _1393
REMARK  647  A    between atoms: _1392  and  _1395
REMARK  648  A    between atoms: _1395  and  _1396
REMARK  649  A    between atoms: _1396  and  _1397
REMARK  650  A    between atoms: _1397  and  _1398
REMARK  651  A    between atoms: _1400  and  _1401
REMARK  652  A    between atoms: _1401  and  _1402
REMARK  653  A    between atoms: _1401  and  _1404
REMARK  654  A    between atoms: _1404  and  _1405
REMARK  655  A    between atoms: _1405  and  _1406
REMARK  656  A    between atoms: _1409  and  _1410
REMARK  657  A    between atoms: _1410  and  _1411
REMARK  658  A    between atoms: _1410  and  _1413
REMARK  659  A    between atoms: _1413  and  _1414
REMARK  660  A    between atoms: _1417  and  _1418
REMARK  661  A    between atoms: _1418  and  _1419
REMARK  662  A    between atoms: _1418  and  _1421
REMARK  663  A    between atoms: _1421  and  _1422
REMARK  664  A    between atoms: _1422  and  _1423
REMARK  665  A    between atoms: _1426  and  _1427
REMARK  666  A    between atoms: _1427  and  _1428
REMARK  667  A    between atoms: _1427  and  _1430
REMARK  668  A    between atoms: _1433  and  _1434
REMARK  669  A    between atoms: _1434  and  _1435
REMARK  670  A    between atoms: _1434  and  _1437
REMARK  671  A    between atoms: _1437  and  _1438
REMARK  672  A    between atoms: _1438  and  _1439
REMARK  673  A    between atoms: _1442  and  _1443
REMARK  674  A    between atoms: _1443  and  _1444
REMARK  675  A    between atoms: _1443  and  _1446
REMARK  676  A    between atoms: _1446  and  _1447
REMARK  677  A    between atoms: _1454  and  _1455
REMARK  678  A    between atoms: _1455  and  _1456
REMARK  679  A    between atoms: _1455  and  _1458
REMARK  680  A    between atoms: _1458  and  _1459
REMARK  681  A    between atoms: _1462  and  _1463
REMARK  682  A    between atoms: _1463  and  _1464
REMARK  683  A    between atoms: _1463  and  _1466
REMARK  684  A    between atoms: _1466  and  _1467
REMARK  685  A    between atoms: _1467  and  _1468
REMARK  686  A    between atoms: _1471  and  _1472
REMARK  687  A    between atoms: _1472  and  _1473
REMARK  688  A    between atoms: _1472  and  _1475
REMARK  689  A    between atoms: _1475  and  _1476
REMARK  690  A    between atoms: _1476  and  _1477
REMARK  691  A    between atoms: _1480  and  _1481
REMARK  692  A    between atoms: _1481  and  _1482
REMARK  693  A    between atoms: _1481  and  _1484
REMARK  694  A    between atoms: _1484  and  _1485
REMARK  695  A    between atoms: _1485  and  _1486
REMARK  696  A    between atoms: _1486  and  _1487
REMARK  697  A    between atoms: _1491  and  _1492
REMARK  698  A    between atoms: _1492  and  _1493
REMARK  699  A    between atoms: _1492  and  _1495
REMARK  700  A    between atoms: _1495  and  _1496
REMARK  701  A    between atoms: _1496  and  _1497
REMARK  702  A    between atoms: _1497  and  _1498
REMARK  703  A    between atoms: _1502  and  _1503
REMARK  704  A    between atoms: _1503  and  _1504
REMARK  705  A    between atoms: _1503  and  _1506
REMARK  706  A    between atoms: _1506  and  _1507
REMARK  707  A    between atoms: _1510  and  _1511
REMARK  708  A    between atoms: _1511  and  _1512
REMARK  709  A    between atoms: _1511  and  _1514
REMARK  710  A    between atoms: _1514  and  _1515
REMARK  711  A    between atoms: _1515  and  _1516
REMARK  712  A    between atoms: _1516  and  _1517
REMARK  713  A    between atoms: _1519  and  _1520
REMARK  714  A    between atoms: _1520  and  _1521
REMARK  715  A    between atoms: _1520  and  _1523
REMARK  716  A    between atoms: _1523  and  _1524
REMARK  717  A    between atoms: _1524  and  _1525
REMARK  718  A    between atoms: _1528  and  _1529
REMARK  719  A    between atoms: _1529  and  _1530
REMARK  720  A    between atoms: _1529  and  _1532
REMARK  721  A    between atoms: _1532  and  _1533
REMARK  722  A    between atoms: _1536  and  _1537
REMARK  723  A    between atoms: _1537  and  _1538
REMARK  724  A    between atoms: _1537  and  _1540
REMARK  725  A    between atoms: _1543  and  _1544
REMARK  726  A    between atoms: _1544  and  _1545
REMARK  727  A    between atoms: _1544  and  _1547
REMARK  728  A    between atoms: _1547  and  _1548
REMARK  729  A    between atoms: _1548  and  _1549
REMARK  730  A    between atoms: _1549  and  _1550
REMARK  731  A    between atoms: _1552  and  _1553
REMARK  732  A    between atoms: _1553  and  _1554
REMARK  733  A    between atoms: _1553  and  _1556
REMARK  734  A    between atoms: _1556  and  _1557
REMARK  735  A    between atoms: _1557  and  _1558
REMARK  736  A    between atoms: _1558  and  _1559
REMARK  737  A    between atoms: _1561  and  _1562
REMARK  738  A    between atoms: _1562  and  _1563
REMARK  739  A    between atoms: _1562  and  _1565
REMARK  740  A    between atoms: _1565  and  _1566
REMARK  741  A    between atoms: _1571  and  _1572
REMARK  742  A    between atoms: _1572  and  _1573
REMARK  743  A    between atoms: _1572  and  _1575
REMARK  744  A    between atoms: _1577  and  _1578
REMARK  745  A    between atoms: _1578  and  _1579
REMARK  746  A    between atoms: _1578  and  _1581
REMARK  747  A    between atoms: _1581  and  _1582
REMARK  748  A    between atoms: _1582  and  _1583
REMARK  749  A    between atoms: _1586  and  _1587
REMARK  750  A    between atoms: _1587  and  _1588
REMARK  751  A    between atoms: _1587  and  _1590
REMARK  752  A    between atoms: _1590  and  _1591
REMARK  753  A    between atoms: _1597  and  _1598
REMARK  754  A    between atoms: _1598  and  _1599
REMARK  755  A    between atoms: _1598  and  _1601
REMARK  756  A    between atoms: _1601  and  _1602
REMARK  757  A    between atoms: _1605  and  _1606
REMARK  758  A    between atoms: _1606  and  _1607
REMARK  759  A    between atoms: _1609  and  _1610
REMARK  760  A    between atoms: _1610  and  _1611
REMARK  761  A    between atoms: _1610  and  _1613
REMARK  762  A    between atoms: _1613  and  _1614
REMARK  763  A    between atoms: _1622  and  _1623
REMARK  764  A    between atoms: _1628  and  _1629
REMARK  765  A    between atoms: _1629  and  _1630
REMARK  766  A    between atoms: _1629  and  _1632
REMARK  767  A    between atoms: _1632  and  _1633
REMARK  768  A    between atoms: _1636  and  _1637
REMARK  769  A    between atoms: _1637  and  _1638
REMARK  770  A    between atoms: _1637  and  _1640
REMARK  771  A    between atoms: _1643  and  _1644
REMARK  772  A    between atoms: _1644  and  _1645
REMARK  773  A    between atoms: _1644  and  _1647
REMARK  774  A    between atoms: _1647  and  _1648
REMARK  775  A    between atoms: _1651  and  _1652
REMARK  776  A    between atoms: _1652  and  _1653
REMARK  777  A    between atoms: _1652  and  _1655
REMARK  778  A    between atoms: _1655  and  _1656
REMARK  779  A    between atoms: _1662  and  _1663
REMARK  780  A    between atoms: _1663  and  _1664
REMARK  781  A    between atoms: _1663  and  _1666
REMARK  782  A    between atoms: _1669  and  _1670
REMARK  783  A    between atoms: _1670  and  _1671
REMARK  784  A    between atoms: _1670  and  _1673
REMARK  785  A    between atoms: _1673  and  _1674
REMARK  786  A    between atoms: _1674  and  _1675
REMARK                            x       y       z     vdW  Elec       q    Type
REMARK                         _______ _______ _______ _____ _____    ______ ____
ROOT
ATOM      1  C   UNL     1      -3.841   6.892  16.949  0.00  0.00    +0.000 C 
ENDROOT
TORSDOF 0
REMARK  Name = /Users/mlugowska/PhD/ML_residence_time_prediction/protein_files/5J64_protein.pdb
REMARK  786 active torsions:
REMARK  status: ('A' for Active; 'I' for Inactive)
REMARK    1  A    between atoms: _2  and  _3
REMARK    2  A    between atoms: _2  and  _5
REMARK    3  A    between atoms: _5  and  _6
REMARK    4  A    between atoms: _6  and  _7
REMARK    5  A    between atoms: _10  and  _11
REMARK    6  A    between atoms: _11  and  _12
REMARK    7  A    between atoms: _11  and  _14
REMARK    8  A    between atoms: _17  and  _18
REMARK    9  A    between atoms: _18  and  _19
REMARK   10  A    between atoms: _18  and  _21
REMARK   11  A    between atoms: _21  and  _22
REMARK   12  A    between atoms: _22  and  _23
REMARK   13  A    between atoms: _26  and  _27
REMARK   14  A    between atoms: _27  and  _28
REMARK   15  A    between atoms: _27  and  _30
REMARK   16  A    between atoms: _33  and  _34
REMARK   17  A    between atoms: _34  and  _35
REMARK   18  A    between atoms: _34  and  _37
REMARK   19  A    between atoms: _37  and  _38
REMARK   20  A    between atoms: _44  and  _45
REMARK   21  A    between atoms: _45  and  _46
REMARK   22  A    between atoms: _49  and  _50
REMARK   23  A    between atoms: _50  and  _51
REMARK   24  A    between atoms: _50  and  _53
REMARK   25  A    between atoms: _53  and  _54
REMARK   26  A    between atoms: _60  and  _61
REMARK   27  A    between atoms: _61  and  _62
REMARK   28  A    between atoms: _61  and  _64
REMARK   29  A    between atoms: _64  and  _65
REMARK   30  A    between atoms: _65  and  _66
REMARK   31  A    between atoms: _69  and  _70
REMARK   32  A    between atoms: _70  and  _71
REMARK   33  A    between atoms: _74  and  _75
REMARK   34  A    between atoms: _75  and  _76
REMARK   35  A    between atoms: _75  and  _78
REMARK   36  A    between atoms: _78  and  _79
REMARK   37  A    between atoms: _79  and  _80
REMARK   38  A    between atoms: _83  and  _84
REMARK   39  A    between atoms: _84  and  _85
REMARK   40  A    between atoms: _84  and  _87
REMARK   41  A    between atoms: _87  and  _88
REMARK   42  A    between atoms: _91  and  _92
REMARK   43  A    between atoms: _92  and  _93
REMARK   44  A    between atoms: _96  and  _97
REMARK   45  A    between atoms: _97  and  _98
REMARK   46  A    between atoms: _97  and  _100
REMARK   47  A    between atoms: _100  and  _101
REMARK   48  A    between atoms: _101  and  _102
REMARK   49  A    between atoms: _105  and  _106
REMARK   50  A    between atoms: _106  and  _107
REMARK   51  A    between atoms: _106  and  _109
REMARK   52  A    between atoms: _109  and  _110
REMARK   53  A    between atoms: _113  and  _114
REMARK   54  A    between atoms: _114  and  _115
REMARK   55  A    between atoms: _114  and  _117
REMARK   56  A    between atoms: _117  and  _118
REMARK   57  A    between atoms: _118  and  _119
REMARK   58  A    between atoms: _121  and  _122
REMARK   59  A    between atoms: _122  and  _123
REMARK   60  A    between atoms: _122  and  _125
REMARK   61  A    between atoms: _127  and  _128
REMARK   62  A    between atoms: _128  and  _129
REMARK   63  A    between atoms: _128  and  _131
REMARK   64  A    between atoms: _131  and  _132
REMARK   65  A    between atoms: _135  and  _136
REMARK   66  A    between atoms: _136  and  _137
REMARK   67  A    between atoms: _136  and  _139
REMARK   68  A    between atoms: _139  and  _140
REMARK   69  A    between atoms: _143  and  _144
REMARK   70  A    between atoms: _144  and  _145
REMARK   71  A    between atoms: _144  and  _147
REMARK   72  A    between atoms: _147  and  _148
REMARK   73  A    between atoms: _151  and  _152
REMARK   74  A    between atoms: _152  and  _153
REMARK   75  A    between atoms: _152  and  _155
REMARK   76  A    between atoms: _155  and  _156
REMARK   77  A    between atoms: _159  and  _160
REMARK   78  A    between atoms: _160  and  _161
REMARK   79  A    between atoms: _160  and  _163
REMARK   80  A    between atoms: _166  and  _167
REMARK   81  A    between atoms: _167  and  _170
REMARK   82  A    between atoms: _170  and  _171
REMARK   83  A    between atoms: _181  and  _183
REMARK   84  A    between atoms: _183  and  _184
REMARK   85  A    between atoms: _189  and  _194
REMARK   86  A    between atoms: _192  and  _195
REMARK   87  A    between atoms: _193  and  _194
REMARK   88  A    between atoms: _195  and  _196
REMARK   89  A    between atoms: _201  and  _202
REMARK   90  A    between atoms: _202  and  _203
REMARK   91  A    between atoms: _202  and  _205
REMARK   92  A    between atoms: _207  and  _208
REMARK   93  A    between atoms: _208  and  _209
REMARK   94  A    between atoms: _208  and  _211
REMARK   95  A    between atoms: _211  and  _212
REMARK   96  A    between atoms: _215  and  _216
REMARK   97  A    between atoms: _216  and  _217
REMARK   98  A    between atoms: _216  and  _219
REMARK   99  A    between atoms: _219  and  _220
REMARK  100  A    between atoms: _220  and  _221
REMARK  101  A    between atoms: _221  and  _222
REMARK  102  A    between atoms: _224  and  _225
REMARK  103  A    between atoms: _225  and  _226
REMARK  104  A    between atoms: _225  and  _228
REMARK  105  A    between atoms: _228  and  _229
REMARK  106  A    between atoms: _229  and  _230
REMARK  107  A    between atoms: _233  and  _234
REMARK  108  A    between atoms: _234  and  _235
REMARK  109  A    between atoms: _234  and  _237
REMARK  110  A    between atoms: _237  and  _238
REMARK  111  A    between atoms: _241  and  _242
REMARK  112  A    between atoms: _242  and  _243
REMARK  113  A    between atoms: _242  and  _245
REMARK  114  A    between atoms: _245  and  _246
REMARK  115  A    between atoms: _252  and  _253
REMARK  116  A    between atoms: _253  and  _254
REMARK  117  A    between atoms: _253  and  _256
REMARK  118  A    between atoms: _256  and  _257
REMARK  119  A    between atoms: _260  and  _261
REMARK  120  A    between atoms: _261  and  _262
REMARK  121  A    between atoms: _261  and  _264
REMARK  122  A    between atoms: _264  and  _265
REMARK  123  A    between atoms: _265  and  _266
REMARK  124  A    between atoms: _266  and  _267
REMARK  125  A    between atoms: _271  and  _272
REMARK  126  A    between atoms: _272  and  _273
REMARK  127  A    between atoms: _272  and  _275
REMARK  128  A    between atoms: _275  and  _276
REMARK  129  A    between atoms: _276  and  _277
REMARK  130  A    between atoms: _280  and  _281
REMARK  131  A    between atoms: _281  and  _282
REMARK  132  A    between atoms: _281  and  _284
REMARK  133  A    between atoms: _284  and  _285
REMARK  134  A    between atoms: _288  and  _289
REMARK  135  A    between atoms: _289  and  _292
REMARK  136  A    between atoms: _292  and  _293
REMARK  137  A    between atoms: _309  and  _310
REMARK  138  A    between atoms: _309  and  _312
REMARK  139  A    between atoms: _312  and  _313
REMARK  140  A    between atoms: _316  and  _317
REMARK  141  A    between atoms: _317  and  _318
REMARK  142  A    between atoms: _317  and  _320
REMARK  143  A    between atoms: _322  and  _323
REMARK  144  A    between atoms: _323  and  _324
REMARK  145  A    between atoms: _323  and  _326
REMARK  146  A    between atoms: _328  and  _329
REMARK  147  A    between atoms: _329  and  _330
REMARK  148  A    between atoms: _329  and  _332
REMARK  149  A    between atoms: _332  and  _333
REMARK  150  A    between atoms: _336  and  _337
REMARK  151  A    between atoms: _337  and  _338
REMARK  152  A    between atoms: _341  and  _342
REMARK  153  A    between atoms: _342  and  _343
REMARK  154  A    between atoms: _342  and  _345
REMARK  155  A    between atoms: _345  and  _346
REMARK  156  A    between atoms: _349  and  _350
REMARK  157  A    between atoms: _350  and  _351
REMARK  158  A    between atoms: _350  and  _353
REMARK  159  A    between atoms: _353  and  _354
REMARK  160  A    between atoms: _357  and  _358
REMARK  161  A    between atoms: _358  and  _359
REMARK  162  A    between atoms: _358  and  _361
REMARK  163  A    between atoms: _361  and  _362
REMARK  164  A    between atoms: _362  and  _363
REMARK  165  A    between atoms: _363  and  _364
REMARK  166  A    between atoms: _366  and  _367
REMARK  167  A    between atoms: _367  and  _368
REMARK  168  A    between atoms: _367  and  _370
REMARK  169  A    between atoms: _370  and  _371
REMARK  170  A    between atoms: _374  and  _375
REMARK  171  A    between atoms: _375  and  _376
REMARK  172  A    between atoms: _375  and  _378
REMARK  173  A    between atoms: _378  and  _379
REMARK  174  A    between atoms: _379  and  _380
REMARK  175  A    between atoms: _380  and  _381
REMARK  176  A    between atoms: _385  and  _386
REMARK  177  A    between atoms: _386  and  _387
REMARK  178  A    between atoms: _386  and  _389
REMARK  179  A    between atoms: _389  and  _390
REMARK  180  A    between atoms: _397  and  _398
REMARK  181  A    between atoms: _398  and  _399
REMARK  182  A    between atoms: _398  and  _401
REMARK  183  A    between atoms: _401  and  _402
REMARK  184  A    between atoms: _402  and  _403
REMARK  185  A    between atoms: _406  and  _407
REMARK  186  A    between atoms: _407  and  _408
REMARK  187  A    between atoms: _407  and  _410
REMARK  188  A    between atoms: _412  and  _413
REMARK  189  A    between atoms: _413  and  _414
REMARK  190  A    between atoms: _413  and  _416
REMARK  191  A    between atoms: _416  and  _417
REMARK  192  A    between atoms: _420  and  _421
REMARK  193  A    between atoms: _421  and  _422
REMARK  194  A    between atoms: _421  and  _424
REMARK  195  A    between atoms: _427  and  _428
REMARK  196  A    between atoms: _428  and  _429
REMARK  197  A    between atoms: _428  and  _431
REMARK  198  A    between atoms: _431  and  _432
REMARK  199  A    between atoms: _436  and  _437
REMARK  200  A    between atoms: _442  and  _443
REMARK  201  A    between atoms: _443  and  _444
REMARK  202  A    between atoms: _443  and  _446
REMARK  203  A    between atoms: _448  and  _449
REMARK  204  A    between atoms: _449  and  _450
REMARK  205  A    between atoms: _449  and  _452
REMARK  206  A    between atoms: _452  and  _453
REMARK  207  A    between atoms: _453  and  _454
REMARK  208  A    between atoms: _454  and  _455
REMARK  209  A    between atoms: _457  and  _458
REMARK  210  A    between atoms: _458  and  _459
REMARK  211  A    between atoms: _458  and  _461
REMARK  212  A    between atoms: _461  and  _462
REMARK  213  A    between atoms: _465  and  _466
REMARK  214  A    between atoms: _466  and  _467
REMARK  215  A    between atoms: _466  and  _469
REMARK  216  A    between atoms: _469  and  _470
REMARK  217  A    between atoms: _473  and  _474
REMARK  218  A    between atoms: _474  and  _475
REMARK  219  A    between atoms: _474  and  _477
REMARK  220  A    between atoms: _479  and  _480
REMARK  221  A    between atoms: _480  and  _481
REMARK  222  A    between atoms: _483  and  _484
REMARK  223  A    between atoms: _484  and  _485
REMARK  224  A    between atoms: _484  and  _487
REMARK  225  A    between atoms: _487  and  _488
REMARK  226  A    between atoms: _488  and  _489
REMARK  227  A    between atoms: _489  and  _490
REMARK  228  A    between atoms: _492  and  _493
REMARK  229  A    between atoms: _493  and  _494
REMARK  230  A    between atoms: _493  and  _496
REMARK  231  A    between atoms: _496  and  _497
REMARK  232  A    between atoms: _497  and  _498
REMARK  233  A    between atoms: _501  and  _502
REMARK  234  A    between atoms: _502  and  _503
REMARK  235  A    between atoms: _502  and  _505
REMARK  236  A    between atoms: _505  and  _506
REMARK  237  A    between atoms: _509  and  _510
REMARK  238  A    between atoms: _510  and  _511
REMARK  239  A    between atoms: _510  and  _513
REMARK  240  A    between atoms: _513  and  _514
REMARK  241  A    between atoms: _519  and  _520
REMARK  242  A    between atoms: _520  and  _521
REMARK  243  A    between atoms: _520  and  _523
REMARK  244  A    between atoms: _523  and  _524
REMARK  245  A    between atoms: _527  and  _528
REMARK  246  A    between atoms: _528  and  _529
REMARK  247  A    between atoms: _528  and  _531
REMARK  248  A    between atoms: _531  and  _532
REMARK  249  A    between atoms: _535  and  _536
REMARK  250  A    between atoms: _536  and  _537
REMARK  251  A    between atoms: _536  and  _539
REMARK  252  A    between atoms: _539  and  _540
REMARK  253  A    between atoms: _543  and  _544
REMARK  254  A    between atoms: _544  and  _545
REMARK  255  A    between atoms: _544  and  _547
REMARK  256  A    between atoms: _547  and  _548
REMARK  257  A    between atoms: _552  and  _553
REMARK  258  A    between atoms: _558  and  _559
REMARK  259  A    between atoms: _559  and  _560
REMARK  260  A    between atoms: _559  and  _562
REMARK  261  A    between atoms: _562  and  _563
REMARK  262  A    between atoms: _566  and  _567
REMARK  263  A    between atoms: _567  and  _568
REMARK  264  A    between atoms: _567  and  _570
REMARK  265  A    between atoms: _570  and  _571
REMARK  266  A    between atoms: _571  and  _572
REMARK  267  A    between atoms: _572  and  _573
REMARK  268  A    between atoms: _575  and  _576
REMARK  269  A    between atoms: _576  and  _577
REMARK  270  A    between atoms: _576  and  _579
REMARK  271  A    between atoms: _579  and  _580
REMARK  272  A    between atoms: _580  and  _581
REMARK  273  A    between atoms: _584  and  _585
REMARK  274  A    between atoms: _585  and  _586
REMARK  275  A    between atoms: _585  and  _588
REMARK  276  A    between atoms: _588  and  _589
REMARK  277  A    between atoms: _592  and  _593
REMARK  278  A    between atoms: _593  and  _594
REMARK  279  A    between atoms: _593  and  _596
REMARK  280  A    between atoms: _596  and  _597
REMARK  281  A    between atoms: _597  and  _598
REMARK  282  A    between atoms: _598  and  _599
REMARK  283  A    between atoms: _603  and  _604
REMARK  284  A    between atoms: _604  and  _605
REMARK  285  A    between atoms: _604  and  _607
REMARK  286  A    between atoms: _610  and  _611
REMARK  287  A    between atoms: _611  and  _612
REMARK  288  A    between atoms: _611  and  _614
REMARK  289  A    between atoms: _614  and  _615
REMARK  290  A    between atoms: _618  and  _619
REMARK  291  A    between atoms: _619  and  _620
REMARK  292  A    between atoms: _619  and  _622
REMARK  293  A    between atoms: _625  and  _626
REMARK  294  A    between atoms: _626  and  _627
REMARK  295  A    between atoms: _626  and  _629
REMARK  296  A    between atoms: _629  and  _630
REMARK  297  A    between atoms: _633  and  _634
REMARK  298  A    between atoms: _634  and  _635
REMARK  299  A    between atoms: _634  and  _637
REMARK  300  A    between atoms: _640  and  _641
REMARK  301  A    between atoms: _641  and  _642
REMARK  302  A    between atoms: _641  and  _644
REMARK  303  A    between atoms: _644  and  _645
REMARK  304  A    between atoms: _648  and  _649
REMARK  305  A    between atoms: _649  and  _650
REMARK  306  A    between atoms: _649  and  _652
REMARK  307  A    between atoms: _655  and  _656
REMARK  308  A    between atoms: _656  and  _657
REMARK  309  A    between atoms: _659  and  _660
REMARK  310  A    between atoms: _660  and  _661
REMARK  311  A    between atoms: _660  and  _663
REMARK  312  A    between atoms: _663  and  _664
REMARK  313  A    between atoms: _667  and  _668
REMARK  314  A    between atoms: _668  and  _669
REMARK  315  A    between atoms: _671  and  _672
REMARK  316  A    between atoms: _672  and  _673
REMARK  317  A    between atoms: _672  and  _675
REMARK  318  A    between atoms: _675  and  _676
REMARK  319  A    between atoms: _676  and  _677
REMARK  320  A    between atoms: _679  and  _680
REMARK  321  A    between atoms: _680  and  _681
REMARK  322  A    between atoms: _680  and  _683
REMARK  323  A    between atoms: _686  and  _687
REMARK  324  A    between atoms: _687  and  _688
REMARK  325  A    between atoms: _687  and  _690
REMARK  326  A    between atoms: _690  and  _691
REMARK  327  A    between atoms: _691  and  _692
REMARK  328  A    between atoms: _692  and  _693
REMARK  329  A    between atoms: _695  and  _696
REMARK  330  A    between atoms: _696  and  _697
REMARK  331  A    between atoms: _700  and  _701
REMARK  332  A    between atoms: _701  and  _702
REMARK  333  A    between atoms: _701  and  _704
REMARK  334  A    between atoms: _704  and  _705
REMARK  335  A    between atoms: _708  and  _709
REMARK  336  A    between atoms: _709  and  _710
REMARK  337  A    between atoms: _709  and  _712
REMARK  338  A    between atoms: _712  and  _713
REMARK  339  A    between atoms: _716  and  _717
REMARK  340  A    between atoms: _717  and  _720
REMARK  341  A    between atoms: _720  and  _721
REMARK  342  A    between atoms: _733  and  _734
REMARK  343  A    between atoms: _733  and  _735
REMARK  344  A    between atoms: _741  and  _744
REMARK  345  A    between atoms: _744  and  _745
REMARK  346  A    between atoms: _758  and  _759
REMARK  347  A    between atoms: _758  and  _761
REMARK  348  A    between atoms: _759  and  _760
REMARK  349  A    between atoms: _765  and  _766
REMARK  350  A    between atoms: _768  and  _769
REMARK  351  A    between atoms: _769  and  _770
REMARK  352  A    between atoms: _769  and  _772
REMARK  353  A    between atoms: _775  and  _776
REMARK  354  A    between atoms: _776  and  _777
REMARK  355  A    between atoms: _776  and  _779
REMARK  356  A    between atoms: _779  and  _780
REMARK  357  A    between atoms: _783  and  _784
REMARK  358  A    between atoms: _784  and  _785
REMARK  359  A    between atoms: _788  and  _789
REMARK  360  A    between atoms: _789  and  _790
REMARK  361  A    between atoms: _789  and  _792
REMARK  362  A    between atoms: _792  and  _793
REMARK  363  A    between atoms: _793  and  _794
REMARK  364  A    between atoms: _794  and  _795
REMARK  365  A    between atoms: _797  and  _798
REMARK  366  A    between atoms: _798  and  _799
REMARK  367  A    between atoms: _798  and  _801
REMARK  368  A    between atoms: _803  and  _804
REMARK  369  A    between atoms: _804  and  _805
REMARK  370  A    between atoms: _807  and  _808
REMARK  371  A    between atoms: _808  and  _809
REMARK  372  A    between atoms: _808  and  _811
REMARK  373  A    between atoms: _814  and  _815
REMARK  374  A    between atoms: _815  and  _816
REMARK  375  A    between atoms: _815  and  _818
REMARK  376  A    between atoms: _818  and  _819
REMARK  377  A    between atoms: _819  and  _820
REMARK  378  A    between atoms: _820  and  _821
REMARK  379  A    between atoms: _823  and  _824
REMARK  380  A    between atoms: _824  and  _825
REMARK  381  A    between atoms: _828  and  _829
REMARK  382  A    between atoms: _829  and  _830
REMARK  383  A    between atoms: _829  and  _832
REMARK  384  A    between atoms: _832  and  _833
REMARK  385  A    between atoms: _839  and  _840
REMARK  386  A    between atoms: _840  and  _841
REMARK  387  A    between atoms: _840  and  _843
REMARK  388  A    between atoms: _843  and  _844
REMARK  389  A    between atoms: _844  and  _845
REMARK  390  A    between atoms: _847  and  _848
REMARK  391  A    between atoms: _848  and  _849
REMARK  392  A    between atoms: _848  and  _851
REMARK  393  A    between atoms: _851  and  _852
REMARK  394  A    between atoms: _852  and  _853
REMARK  395  A    between atoms: _856  and  _857
REMARK  396  A    between atoms: _857  and  _858
REMARK  397  A    between atoms: _861  and  _862
REMARK  398  A    between atoms: _862  and  _863
REMARK  399  A    between atoms: _862  and  _865
REMARK  400  A    between atoms: _865  and  _866
REMARK  401  A    between atoms: _869  and  _870
REMARK  402  A    between atoms: _870  and  _871
REMARK  403  A    between atoms: _870  and  _873
REMARK  404  A    between atoms: _873  and  _874
REMARK  405  A    between atoms: _874  and  _875
REMARK  406  A    between atoms: _878  and  _879
REMARK  407  A    between atoms: _879  and  _880
REMARK  408  A    between atoms: _883  and  _884
REMARK  409  A    between atoms: _884  and  _885
REMARK  410  A    between atoms: _887  and  _888
REMARK  411  A    between atoms: _888  and  _889
REMARK  412  A    between atoms: _892  and  _893
REMARK  413  A    between atoms: _893  and  _894
REMARK  414  A    between atoms: _893  and  _896
REMARK  415  A    between atoms: _896  and  _897
REMARK  416  A    between atoms: _900  and  _901
REMARK  417  A    between atoms: _901  and  _902
REMARK  418  A    between atoms: _901  and  _904
REMARK  419  A    between atoms: _904  and  _905
REMARK  420  A    between atoms: _908  and  _909
REMARK  421  A    between atoms: _909  and  _910
REMARK  422  A    between atoms: _909  and  _912
REMARK  423  A    between atoms: _914  and  _915
REMARK  424  A    between atoms: _915  and  _916
REMARK  425  A    between atoms: _915  and  _918
REMARK  426  A    between atoms: _918  and  _919
REMARK  427  A    between atoms: _919  and  _920
REMARK  428  A    between atoms: _922  and  _923
REMARK  429  A    between atoms: _923  and  _924
REMARK  430  A    between atoms: _923  and  _926
REMARK  431  A    between atoms: _926  and  _927
REMARK  432  A    between atoms: _930  and  _931
REMARK  433  A    between atoms: _931  and  _932
REMARK  434  A    between atoms: _934  and  _935
REMARK  435  A    between atoms: _935  and  _936
REMARK  436  A    between atoms: _935  and  _938
REMARK  437  A    between atoms: _938  and  _939
REMARK  438  A    between atoms: _939  and  _940
REMARK  439  A    between atoms: _943  and  _944
REMARK  440  A    between atoms: _944  and  _945
REMARK  441  A    between atoms: _944  and  _947
REMARK  442  A    between atoms: _947  and  _948
REMARK  443  A    between atoms: _954  and  _955
REMARK  444  A    between atoms: _955  and  _956
REMARK  445  A    between atoms: _958  and  _959
REMARK  446  A    between atoms: _959  and  _960
REMARK  447  A    between atoms: _959  and  _962
REMARK  448  A    between atoms: _965  and  _966
REMARK  449  A    between atoms: _966  and  _967
REMARK  450  A    between atoms: _969  and  _970
REMARK  451  A    between atoms: _970  and  _971
REMARK  452  A    between atoms: _970  and  _973
REMARK  453  A    between atoms: _973  and  _974
REMARK  454  A    between atoms: _980  and  _981
REMARK  455  A    between atoms: _981  and  _982
REMARK  456  A    between atoms: _981  and  _984
REMARK  457  A    between atoms: _984  and  _985
REMARK  458  A    between atoms: _992  and  _993
REMARK  459  A    between atoms: _993  and  _994
REMARK  460  A    between atoms: _993  and  _996
REMARK  461  A    between atoms: _998  and  _999
REMARK  462  A    between atoms: _999  and  _1000
REMARK  463  A    between atoms: _1003  and  _1004
REMARK  464  A    between atoms: _1004  and  _1005
REMARK  465  A    between atoms: _1004  and  _1007
REMARK  466  A    between atoms: _1007  and  _1008
REMARK  467  A    between atoms: _1015  and  _1016
REMARK  468  A    between atoms: _1016  and  _1017
REMARK  469  A    between atoms: _1016  and  _1019
REMARK  470  A    between atoms: _1019  and  _1020
REMARK  471  A    between atoms: _1023  and  _1024
REMARK  472  A    between atoms: _1024  and  _1025
REMARK  473  A    between atoms: _1024  and  _1027
REMARK  474  A    between atoms: _1030  and  _1031
REMARK  475  A    between atoms: _1031  and  _1032
REMARK  476  A    between atoms: _1035  and  _1036
REMARK  477  A    between atoms: _1036  and  _1037
REMARK  478  A    between atoms: _1036  and  _1039
REMARK  479  A    between atoms: _1039  and  _1040
REMARK  480  A    between atoms: _1040  and  _1041
REMARK  481  A    between atoms: _1044  and  _1045
REMARK  482  A    between atoms: _1045  and  _1046
REMARK  483  A    between atoms: _1045  and  _1048
REMARK  484  A    between atoms: _1048  and  _1049
REMARK  485  A    between atoms: _1049  and  _1050
REMARK  486  A    between atoms: _1050  and  _1051
REMARK  487  A    between atoms: _1053  and  _1054
REMARK  488  A    between atoms: _1054  and  _1055
REMARK  489  A    between atoms: _1054  and  _1057
REMARK  490  A    between atoms: _1060  and  _1061
REMARK  491  A    between atoms: _1061  and  _1062
REMARK  492  A    between atoms: _1061  and  _1064
REMARK  493  A    between atoms: _1067  and  _1068
REMARK  494  A    between atoms: _1068  and  _1069
REMARK  495  A    between atoms: _1068  and  _1071
REMARK  496  A    between atoms: _1074  and  _1075
REMARK  497  A    between atoms: _1075  and  _1076
REMARK  498  A    between atoms: _1075  and  _1078
REMARK  499  A    between atoms: _1078  and  _1079
REMARK  500  A    between atoms: _1082  and  _1083
REMARK  501  A    between atoms: _1083  and  _1084
REMARK  502  A    between atoms: _1083  and  _1086
REMARK  503  A    between atoms: _1089  and  _1090
REMARK  504  A    between atoms: _1090  and  _1091
REMARK  505  A    between atoms: _1090  and  _1093
REMARK  506  A    between atoms: _1093  and  _1094
REMARK  507  A    between atoms: _1094  and  _1095
REMARK  508  A    between atoms: _1095  and  _1096
REMARK  509  A    between atoms: _1098  and  _1099
REMARK  510  A    between atoms: _1099  and  _1100
REMARK  511  A    between atoms: _1099  and  _1102
REMARK  512  A    between atoms: _1102  and  _1103
REMARK  513  A    between atoms: _1108  and  _1109
REMARK  514  A    between atoms: _1109  and  _1110
REMARK  515  A    between atoms: _1109  and  _1112
REMARK  516  A    between atoms: _1112  and  _1113
REMARK  517  A    between atoms: _1116  and  _1117
REMARK  518  A    between atoms: _1117  and  _1118
REMARK  519  A    between atoms: _1117  and  _1120
REMARK  520  A    between atoms: _1120  and  _1121
REMARK  521  A    between atoms: _1124  and  _1125
REMARK  522  A    between atoms: _1125  and  _1126
REMARK  523  A    between atoms: _1125  and  _1128
REMARK  524  A    between atoms: _1128  and  _1129
REMARK  525  A    between atoms: _1132  and  _1133
REMARK  526  A    between atoms: _1133  and  _1134
REMARK  527  A    between atoms: _1133  and  _1136
REMARK  528  A    between atoms: _1136  and  _1137
REMARK  529  A    between atoms: _1137  and  _1138
REMARK  530  A    between atoms: _1141  and  _1142
REMARK  531  A    between atoms: _1142  and  _1143
REMARK  532  A    between atoms: _1142  and  _1145
REMARK  533  A    between atoms: _1145  and  _1146
REMARK  534  A    between atoms: _1146  and  _1147
REMARK  535  A    between atoms: _1150  and  _1151
REMARK  536  A    between atoms: _1151  and  _1152
REMARK  537  A    between atoms: _1151  and  _1154
REMARK  538  A    between atoms: _1154  and  _1155
REMARK  539  A    between atoms: _1162  and  _1163
REMARK  540  A    between atoms: _1163  and  _1164
REMARK  541  A    between atoms: _1167  and  _1168
REMARK  542  A    between atoms: _1168  and  _1169
REMARK  543  A    between atoms: _1168  and  _1171
REMARK  544  A    between atoms: _1171  and  _1172
REMARK  545  A    between atoms: _1181  and  _1182
REMARK  546  A    between atoms: _1182  and  _1183
REMARK  547  A    between atoms: _1182  and  _1185
REMARK  548  A    between atoms: _1185  and  _1186
REMARK  549  A    between atoms: _1186  and  _1187
REMARK  550  A    between atoms: _1190  and  _1191
REMARK  551  A    between atoms: _1191  and  _1192
REMARK  552  A    between atoms: _1191  and  _1194
REMARK  553  A    between atoms: _1196  and  _1197
REMARK  554  A    between atoms: _1197  and  _1198
REMARK  555  A    between atoms: _1197  and  _1200
REMARK  556  A    between atoms: _1202  and  _1203
REMARK  557  A    between atoms: _1203  and  _1204
REMARK  558  A    between atoms: _1207  and  _1208
REMARK  559  A    between atoms: _1208  and  _1209
REMARK  560  A    between atoms: _1211  and  _1212
REMARK  561  A    between atoms: _1212  and  _1213
REMARK  562  A    between atoms: _1215  and  _1216
REMARK  563  A    between atoms: _1216  and  _1217
REMARK  564  A    between atoms: _1216  and  _1219
REMARK  565  A    between atoms: _1221  and  _1222
REMARK  566  A    between atoms: _1222  and  _1223
REMARK  567  A    between atoms: _1222  and  _1225
REMARK  568  A    between atoms: _1225  and  _1226
REMARK  569  A    between atoms: _1232  and  _1233
REMARK  570  A    between atoms: _1233  and  _1234
REMARK  571  A    between atoms: _1233  and  _1236
REMARK  572  A    between atoms: _1239  and  _1240
REMARK  573  A    between atoms: _1240  and  _1241
REMARK  574  A    between atoms: _1240  and  _1243
REMARK  575  A    between atoms: _1247  and  _1249
REMARK  576  A    between atoms: _1247  and  _1252
REMARK  577  A    between atoms: _1251  and  _1252
REMARK  578  A    between atoms: _1251  and  _1254
REMARK  579  A    between atoms: _1253  and  _1254
REMARK  580  A    between atoms: _1253  and  _1256
REMARK  581  A    between atoms: _1254  and  _1255
REMARK  582  A    between atoms: _1255  and  _1257
REMARK  583  A    between atoms: _1256  and  _1258
REMARK  584  A    between atoms: _1265  and  _1266
REMARK  585  A    between atoms: _1266  and  _1267
REMARK  586  A    between atoms: _1266  and  _1269
REMARK  587  A    between atoms: _1272  and  _1273
REMARK  588  A    between atoms: _1273  and  _1274
REMARK  589  A    between atoms: _1273  and  _1276
REMARK  590  A    between atoms: _1276  and  _1277
REMARK  591  A    between atoms: _1280  and  _1281
REMARK  592  A    between atoms: _1281  and  _1282
REMARK  593  A    between atoms: _1281  and  _1284
REMARK  594  A    between atoms: _1287  and  _1288
REMARK  595  A    between atoms: _1288  and  _1289
REMARK  596  A    between atoms: _1291  and  _1292
REMARK  597  A    between atoms: _1292  and  _1293
REMARK  598  A    between atoms: _1292  and  _1295
REMARK  599  A    between atoms: _1295  and  _1296
REMARK  600  A    between atoms: _1296  and  _1297
REMARK  601  A    between atoms: _1301  and  _1302
REMARK  602  A    between atoms: _1307  and  _1308
REMARK  603  A    between atoms: _1308  and  _1309
REMARK  604  A    between atoms: _1308  and  _1311
REMARK  605  A    between atoms: _1311  and  _1312
REMARK  606  A    between atoms: _1312  and  _1313
REMARK  607  A    between atoms: _1315  and  _1316
REMARK  608  A    between atoms: _1316  and  _1317
REMARK  609  A    between atoms: _1319  and  _1320
REMARK  610  A    between atoms: _1320  and  _1321
REMARK  611  A    between atoms: _1320  and  _1323
REMARK  612  A    between atoms: _1323  and  _1324
REMARK  613  A    between atoms: _1324  and  _1325
REMARK  614  A    between atoms: _1325  and  _1326
REMARK  615  A    between atoms: _1330  and  _1331
REMARK  616  A    between atoms: _1331  and  _1332
REMARK  617  A    between atoms: _1334  and  _1335
REMARK  618  A    between atoms: _1335  and  _1336
REMARK  619  A    between atoms: _1335  and  _1338
REMARK  620  A    between atoms: _1341  and  _1342
REMARK  621  A    between atoms: _1342  and  _1343
REMARK  622  A    between atoms: _1342  and  _1345
REMARK  623  A    between atoms: _1345  and  _1346
REMARK  624  A    between atoms: _1346  and  _1347
REMARK  625  A    between atoms: _1347  and  _1348
REMARK  626  A    between atoms: _1350  and  _1351
REMARK  627  A    between atoms: _1351  and  _1352
REMARK  628  A    between atoms: _1351  and  _1354
REMARK  629  A    between atoms: _1357  and  _1358
REMARK  630  A    between atoms: _1358  and  _1359
REMARK  631  A    between atoms: _1358  and  _1361
REMARK  632  A    between atoms: _1361  and  _1362
REMARK  633  A    between atoms: _1365  and  _1366
REMARK  634  A    between atoms: _1366  and  _1367
REMARK  635  A    between atoms: _1366  and  _1369
REMARK  636  A    between atoms: _1369  and  _1370
REMARK  637  A    between atoms: _1373  and  _1374
REMARK  638  A    between atoms: _1374  and  _1375
REMARK  639  A    between atoms: _1374  and  _1377
REMARK  640  A    between atoms: _1377  and  _1378
REMARK  641  A    between atoms: _1383  and  _1384
REMARK  642  A    between atoms: _1384  and  _1385
REMARK  643  A    between atoms: _1384  and  _1387
REMARK  644  A    between atoms: _1387  and  _1388
REMARK  645  A    between atoms: _1391  and  _1392
REMARK  646  A    between atoms: _1392  and  _1393
REMARK  647  A    between atoms: _1392  and  _1395
REMARK  648  A    between atoms: _1395  and  _1396
REMARK  649  A    between atoms: _1396  and  _1397
REMARK  650  A    between atoms: _1397  and  _1398
REMARK  651  A    between atoms: _1400  and  _1401
REMARK  652  A    between atoms: _1401  and  _1402
REMARK  653  A    between atoms: _1401  and  _1404
REMARK  654  A    between atoms: _1404  and  _1405
REMARK  655  A    between atoms: _1405  and  _1406
REMARK  656  A    between atoms: _1409  and  _1410
REMARK  657  A    between atoms: _1410  and  _1411
REMARK  658  A    between atoms: _1410  and  _1413
REMARK  659  A    between atoms: _1413  and  _1414
REMARK  660  A    between atoms: _1417  and  _1418
REMARK  661  A    between atoms: _1418  and  _1419
REMARK  662  A    between atoms: _1418  and  _1421
REMARK  663  A    between atoms: _1421  and  _1422
REMARK  664  A    between atoms: _1422  and  _1423
REMARK  665  A    between atoms: _1426  and  _1427
REMARK  666  A    between atoms: _1427  and  _1428
REMARK  667  A    between atoms: _1427  and  _1430
REMARK  668  A    between atoms: _1433  and  _1434
REMARK  669  A    between atoms: _1434  and  _1435
REMARK  670  A    between atoms: _1434  and  _1437
REMARK  671  A    between atoms: _1437  and  _1438
REMARK  672  A    between atoms: _1438  and  _1439
REMARK  673  A    between atoms: _1442  and  _1443
REMARK  674  A    between atoms: _1443  and  _1444
REMARK  675  A    between atoms: _1443  and  _1446
REMARK  676  A    between atoms: _1446  and  _1447
REMARK  677  A    between atoms: _1454  and  _1455
REMARK  678  A    between atoms: _1455  and  _1456
REMARK  679  A    between atoms: _1455  and  _1458
REMARK  680  A    between atoms: _1458  and  _1459
REMARK  681  A    between atoms: _1462  and  _1463
REMARK  682  A    between atoms: _1463  and  _1464
REMARK  683  A    between atoms: _1463  and  _1466
REMARK  684  A    between atoms: _1466  and  _1467
REMARK  685  A    between atoms: _1467  and  _1468
REMARK  686  A    between atoms: _1471  and  _1472
REMARK  687  A    between atoms: _1472  and  _1473
REMARK  688  A    between atoms: _1472  and  _1475
REMARK  689  A    between atoms: _1475  and  _1476
REMARK  690  A    between atoms: _1476  and  _1477
REMARK  691  A    between atoms: _1480  and  _1481
REMARK  692  A    between atoms: _1481  and  _1482
REMARK  693  A    between atoms: _1481  and  _1484
REMARK  694  A    between atoms: _1484  and  _1485
REMARK  695  A    between atoms: _1485  and  _1486
REMARK  696  A    between atoms: _1486  and  _1487
REMARK  697  A    between atoms: _1491  and  _1492
REMARK  698  A    between atoms: _1492  and  _1493
REMARK  699  A    between atoms: _1492  and  _1495
REMARK  700  A    between atoms: _1495  and  _1496
REMARK  701  A    between atoms: _1496  and  _1497
REMARK  702  A    between atoms: _1497  and  _1498
REMARK  703  A    between atoms: _1502  and  _1503
REMARK  704  A    between atoms: _1503  and  _1504
REMARK  705  A    between atoms: _1503  and  _1506
REMARK  706  A    between atoms: _1506  and  _1507
REMARK  707  A    between atoms: _1510  and  _1511
REMARK  708  A    between atoms: _1511  and  _1512
REMARK  709  A    between atoms: _1511  and  _1514
REMARK  710  A    between atoms: _1514  and  _1515
REMARK  711  A    between atoms: _1515  and  _1516
REMARK  712  A    between atoms: _1516  and  _1517
REMARK  713  A    between atoms: _1519  and  _1520
REMARK  714  A    between atoms: _1520  and  _1521
REMARK  715  A    between atoms: _1520  and  _1523
REMARK  716  A    between atoms: _1523  and  _1524
REMARK  717  A    between atoms: _1524  and  _1525
REMARK  718  A    between atoms: _1528  and  _1529
REMARK  719  A    between atoms: _1529  and  _1530
REMARK  720  A    between atoms: _1529  and  _1532
REMARK  721  A    between atoms: _1532  and  _1533
REMARK  722  A    between atoms: _1536  and  _1537
REMARK  723  A    between atoms: _1537  and  _1538
REMARK  724  A    between atoms: _1537  and  _1540
REMARK  725  A    between atoms: _1543  and  _1544
REMARK  726  A    between atoms: _1544  and  _1545
REMARK  727  A    between atoms: _1544  and  _1547
REMARK  728  A    between atoms: _1547  and  _1548
REMARK  729  A    between atoms: _1548  and  _1549
REMARK  730  A    between atoms: _1549  and  _1550
REMARK  731  A    between atoms: _1552  and  _1553
REMARK  732  A    between atoms: _1553  and  _1554
REMARK  733  A    between atoms: _1553  and  _1556
REMARK  734  A    between atoms: _1556  and  _1557
REMARK  735  A    between atoms: _1557  and  _1558
REMARK  736  A    between atoms: _1558  and  _1559
REMARK  737  A    between atoms: _1561  and  _1562
REMARK  738  A    between atoms: _1562  and  _1563
REMARK  739  A    between atoms: _1562  and  _1565
REMARK  740  A    between atoms: _1565  and  _1566
REMARK  741  A    between atoms: _1571  and  _1572
REMARK  742  A    between atoms: _1572  and  _1573
REMARK  743  A    between atoms: _1572  and  _1575
REMARK  744  A    between atoms: _1577  and  _1578
REMARK  745  A    between atoms: _1578  and  _1579
REMARK  746  A    between atoms: _1578  and  _1581
REMARK  747  A    between atoms: _1581  and  _1582
REMARK  748  A    between atoms: _1582  and  _1583
REMARK  749  A    between atoms: _1586  and  _1587
REMARK  750  A    between atoms: _1587  and  _1588
REMARK  751  A    between atoms: _1587  and  _1590
REMARK  752  A    between atoms: _1590  and  _1591
REMARK  753  A    between atoms: _1597  and  _1598
REMARK  754  A    between atoms: _1598  and  _1599
REMARK  755  A    between atoms: _1598  and  _1601
REMARK  756  A    between atoms: _1601  and  _1602
REMARK  757  A    between atoms: _1605  and  _1606
REMARK  758  A    between atoms: _1606  and  _1607
REMARK  759  A    between atoms: _1609  and  _1610
REMARK  760  A    between atoms: _1610  and  _1611
REMARK  761  A    between atoms: _1610  and  _1613
REMARK  762  A    between atoms: _1613  and  _1614
REMARK  763  A    between atoms: _1622  and  _1623
REMARK  764  A    between atoms: _1628  and  _1629
REMARK  765  A    between atoms: _1629  and  _1630
REMARK  766  A    between atoms: _1629  and  _1632
REMARK  767  A    between atoms: _1632  and  _1633
REMARK  768  A    between atoms: _1636  and  _1637
REMARK  769  A    between atoms: _1637  and  _1638
REMARK  770  A    between atoms: _1637  and  _1640
REMARK  771  A    between atoms: _1643  and  _1644
REMARK  772  A    between atoms: _1644  and  _1645
REMARK  773  A    between atoms: _1644  and  _1647
REMARK  774  A    between atoms: _1647  and  _1648
REMARK  775  A    between atoms: _1651  and  _1652
REMARK  776  A    between atoms: _1652  and  _1653
REMARK  777  A    between atoms: _1652  and  _1655
REMARK  778  A    between atoms: _1655  and  _1656
REMARK  779  A    between atoms: _1662  and  _1663
REMARK  780  A    between atoms: _1663  and  _1664
REMARK  781  A    between atoms: _1663  and  _1666
REMARK  782  A    between atoms: _1669  and  _1670
REMARK  783  A    between atoms: _1670  and  _1671
REMARK  784  A    between atoms: _1670  and  _1673
REMARK  785  A    between atoms: _1673  and  _1674
REMARK  786  A    between atoms: _1674  and  _1675
REMARK                            x       y       z     vdW  Elec       q    Type
REMARK                         _______ _______ _______ _____ _____    ______ ____
ROOT
ATOM      1  C   UNL     1      -3.399   6.911  18.373  0.00  0.00    +0.000 C 
ENDROOT
TORSDOF 0
REMARK  Name = /Users/mlugowska/PhD/ML_residence_time_prediction/protein_files/5J64_protein.pdb
REMARK  786 active torsions:
REMARK  status: ('A' for Active; 'I' for Inactive)
REMARK    1  A    between atoms: _2  and  _3
REMARK    2  A    between atoms: _2  and  _5
REMARK    3  A    between atoms: _5  and  _6
REMARK    4  A    between atoms: _6  and  _7
REMARK    5  A    between atoms: _10  and  _11
REMARK    6  A    between atoms: _11  and  _12
REMARK    7  A    between atoms: _11  and  _14
REMARK    8  A    between atoms: _17  and  _18
REMARK    9  A    between atoms: _18  and  _19
REMARK   10  A    between atoms: _18  and  _21
REMARK   11  A    between atoms: _21  and  _22
REMARK   12  A    between atoms: _22  and  _23
REMARK   13  A    between atoms: _26  and  _27
REMARK   14  A    between atoms: _27  and  _28
REMARK   15  A    between atoms: _27  and  _30
REMARK   16  A    between atoms: _33  and  _34
REMARK   17  A    between atoms: _34  and  _35
REMARK   18  A    between atoms: _34  and  _37
REMARK   19  A    between atoms: _37  and  _38
REMARK   20  A    between atoms: _44  and  _45
REMARK   21  A    between atoms: _45  and  _46
REMARK   22  A    between atoms: _49  and  _50
REMARK   23  A    between atoms: _50  and  _51
REMARK   24  A    between atoms: _50  and  _53
REMARK   25  A    between atoms: _53  and  _54
REMARK   26  A    between atoms: _60  and  _61
REMARK   27  A    between atoms: _61  and  _62
REMARK   28  A    between atoms: _61  and  _64
REMARK   29  A    between atoms: _64  and  _65
REMARK   30  A    between atoms: _65  and  _66
REMARK   31  A    between atoms: _69  and  _70
REMARK   32  A    between atoms: _70  and  _71
REMARK   33  A    between atoms: _74  and  _75
REMARK   34  A    between atoms: _75  and  _76
REMARK   35  A    between atoms: _75  and  _78
REMARK   36  A    between atoms: _78  and  _79
REMARK   37  A    between atoms: _79  and  _80
REMARK   38  A    between atoms: _83  and  _84
REMARK   39  A    between atoms: _84  and  _85
REMARK   40  A    between atoms: _84  and  _87
REMARK   41  A    between atoms: _87  and  _88
REMARK   42  A    between atoms: _91  and  _92
REMARK   43  A    between atoms: _92  and  _93
REMARK   44  A    between atoms: _96  and  _97
REMARK   45  A    between atoms: _97  and  _98
REMARK   46  A    between atoms: _97  and  _100
REMARK   47  A    between atoms: _100  and  _101
REMARK   48  A    between atoms: _101  and  _102
REMARK   49  A    between atoms: _105  and  _106
REMARK   50  A    between atoms: _106  and  _107
REMARK   51  A    between atoms: _106  and  _109
REMARK   52  A    between atoms: _109  and  _110
REMARK   53  A    between atoms: _113  and  _114
REMARK   54  A    between atoms: _114  and  _115
REMARK   55  A    between atoms: _114  and  _117
REMARK   56  A    between atoms: _117  and  _118
REMARK   57  A    between atoms: _118  and  _119
REMARK   58  A    between atoms: _121  and  _122
REMARK   59  A    between atoms: _122  and  _123
REMARK   60  A    between atoms: _122  and  _125
REMARK   61  A    between atoms: _127  and  _128
REMARK   62  A    between atoms: _128  and  _129
REMARK   63  A    between atoms: _128  and  _131
REMARK   64  A    between atoms: _131  and  _132
REMARK   65  A    between atoms: _135  and  _136
REMARK   66  A    between atoms: _136  and  _137
REMARK   67  A    between atoms: _136  and  _139
REMARK   68  A    between atoms: _139  and  _140
REMARK   69  A    between atoms: _143  and  _144
REMARK   70  A    between atoms: _144  and  _145
REMARK   71  A    between atoms: _144  and  _147
REMARK   72  A    between atoms: _147  and  _148
REMARK   73  A    between atoms: _151  and  _152
REMARK   74  A    between atoms: _152  and  _153
REMARK   75  A    between atoms: _152  and  _155
REMARK   76  A    between atoms: _155  and  _156
REMARK   77  A    between atoms: _159  and  _160
REMARK   78  A    between atoms: _160  and  _161
REMARK   79  A    between atoms: _160  and  _163
REMARK   80  A    between atoms: _166  and  _167
REMARK   81  A    between atoms: _167  and  _170
REMARK   82  A    between atoms: _170  and  _171
REMARK   83  A    between atoms: _181  and  _183
REMARK   84  A    between atoms: _183  and  _184
REMARK   85  A    between atoms: _189  and  _194
REMARK   86  A    between atoms: _192  and  _195
REMARK   87  A    between atoms: _193  and  _194
REMARK   88  A    between atoms: _195  and  _196
REMARK   89  A    between atoms: _201  and  _202
REMARK   90  A    between atoms: _202  and  _203
REMARK   91  A    between atoms: _202  and  _205
REMARK   92  A    between atoms: _207  and  _208
REMARK   93  A    between atoms: _208  and  _209
REMARK   94  A    between atoms: _208  and  _211
REMARK   95  A    between atoms: _211  and  _212
REMARK   96  A    between atoms: _215  and  _216
REMARK   97  A    between atoms: _216  and  _217
REMARK   98  A    between atoms: _216  and  _219
REMARK   99  A    between atoms: _219  and  _220
REMARK  100  A    between atoms: _220  and  _221
REMARK  101  A    between atoms: _221  and  _222
REMARK  102  A    between atoms: _224  and  _225
REMARK  103  A    between atoms: _225  and  _226
REMARK  104  A    between atoms: _225  and  _228
REMARK  105  A    between atoms: _228  and  _229
REMARK  106  A    between atoms: _229  and  _230
REMARK  107  A    between atoms: _233  and  _234
REMARK  108  A    between atoms: _234  and  _235
REMARK  109  A    between atoms: _234  and  _237
REMARK  110  A    between atoms: _237  and  _238
REMARK  111  A    between atoms: _241  and  _242
REMARK  112  A    between atoms: _242  and  _243
REMARK  113  A    between atoms: _242  and  _245
REMARK  114  A    between atoms: _245  and  _246
REMARK  115  A    between atoms: _252  and  _253
REMARK  116  A    between atoms: _253  and  _254
REMARK  117  A    between atoms: _253  and  _256
REMARK  118  A    between atoms: _256  and  _257
REMARK  119  A    between atoms: _260  and  _261
REMARK  120  A    between atoms: _261  and  _262
REMARK  121  A    between atoms: _261  and  _264
REMARK  122  A    between atoms: _264  and  _265
REMARK  123  A    between atoms: _265  and  _266
REMARK  124  A    between atoms: _266  and  _267
REMARK  125  A    between atoms: _271  and  _272
REMARK  126  A    between atoms: _272  and  _273
REMARK  127  A    between atoms: _272  and  _275
REMARK  128  A    between atoms: _275  and  _276
REMARK  129  A    between atoms: _276  and  _277
REMARK  130  A    between atoms: _280  and  _281
REMARK  131  A    between atoms: _281  and  _282
REMARK  132  A    between atoms: _281  and  _284
REMARK  133  A    between atoms: _284  and  _285
REMARK  134  A    between atoms: _288  and  _289
REMARK  135  A    between atoms: _289  and  _292
REMARK  136  A    between atoms: _292  and  _293
REMARK  137  A    between atoms: _309  and  _310
REMARK  138  A    between atoms: _309  and  _312
REMARK  139  A    between atoms: _312  and  _313
REMARK  140  A    between atoms: _316  and  _317
REMARK  141  A    between atoms: _317  and  _318
REMARK  142  A    between atoms: _317  and  _320
REMARK  143  A    between atoms: _322  and  _323
REMARK  144  A    between atoms: _323  and  _324
REMARK  145  A    between atoms: _323  and  _326
REMARK  146  A    between atoms: _328  and  _329
REMARK  147  A    between atoms: _329  and  _330
REMARK  148  A    between atoms: _329  and  _332
REMARK  149  A    between atoms: _332  and  _333
REMARK  150  A    between atoms: _336  and  _337
REMARK  151  A    between atoms: _337  and  _338
REMARK  152  A    between atoms: _341  and  _342
REMARK  153  A    between atoms: _342  and  _343
REMARK  154  A    between atoms: _342  and  _345
REMARK  155  A    between atoms: _345  and  _346
REMARK  156  A    between atoms: _349  and  _350
REMARK  157  A    between atoms: _350  and  _351
REMARK  158  A    between atoms: _350  and  _353
REMARK  159  A    between atoms: _353  and  _354
REMARK  160  A    between atoms: _357  and  _358
REMARK  161  A    between atoms: _358  and  _359
REMARK  162  A    between atoms: _358  and  _361
REMARK  163  A    between atoms: _361  and  _362
REMARK  164  A    between atoms: _362  and  _363
REMARK  165  A    between atoms: _363  and  _364
REMARK  166  A    between atoms: _366  and  _367
REMARK  167  A    between atoms: _367  and  _368
REMARK  168  A    between atoms: _367  and  _370
REMARK  169  A    between atoms: _370  and  _371
REMARK  170  A    between atoms: _374  and  _375
REMARK  171  A    between atoms: _375  and  _376
REMARK  172  A    between atoms: _375  and  _378
REMARK  173  A    between atoms: _378  and  _379
REMARK  174  A    between atoms: _379  and  _380
REMARK  175  A    between atoms: _380  and  _381
REMARK  176  A    between atoms: _385  and  _386
REMARK  177  A    between atoms: _386  and  _387
REMARK  178  A    between atoms: _386  and  _389
REMARK  179  A    between atoms: _389  and  _390
REMARK  180  A    between atoms: _397  and  _398
REMARK  181  A    between atoms: _398  and  _399
REMARK  182  A    between atoms: _398  and  _401
REMARK  183  A    between atoms: _401  and  _402
REMARK  184  A    between atoms: _402  and  _403
REMARK  185  A    between atoms: _406  and  _407
REMARK  186  A    between atoms: _407  and  _408
REMARK  187  A    between atoms: _407  and  _410
REMARK  188  A    between atoms: _412  and  _413
REMARK  189  A    between atoms: _413  and  _414
REMARK  190  A    between atoms: _413  and  _416
REMARK  191  A    between atoms: _416  and  _417
REMARK  192  A    between atoms: _420  and  _421
REMARK  193  A    between atoms: _421  and  _422
REMARK  194  A    between atoms: _421  and  _424
REMARK  195  A    between atoms: _427  and  _428
REMARK  196  A    between atoms: _428  and  _429
REMARK  197  A    between atoms: _428  and  _431
REMARK  198  A    between atoms: _431  and  _432
REMARK  199  A    between atoms: _436  and  _437
REMARK  200  A    between atoms: _442  and  _443
REMARK  201  A    between atoms: _443  and  _444
REMARK  202  A    between atoms: _443  and  _446
REMARK  203  A    between atoms: _448  and  _449
REMARK  204  A    between atoms: _449  and  _450
REMARK  205  A    between atoms: _449  and  _452
REMARK  206  A    between atoms: _452  and  _453
REMARK  207  A    between atoms: _453  and  _454
REMARK  208  A    between atoms: _454  and  _455
REMARK  209  A    between atoms: _457  and  _458
REMARK  210  A    between atoms: _458  and  _459
REMARK  211  A    between atoms: _458  and  _461
REMARK  212  A    between atoms: _461  and  _462
REMARK  213  A    between atoms: _465  and  _466
REMARK  214  A    between atoms: _466  and  _467
REMARK  215  A    between atoms: _466  and  _469
REMARK  216  A    between atoms: _469  and  _470
REMARK  217  A    between atoms: _473  and  _474
REMARK  218  A    between atoms: _474  and  _475
REMARK  219  A    between atoms: _474  and  _477
REMARK  220  A    between atoms: _479  and  _480
REMARK  221  A    between atoms: _480  and  _481
REMARK  222  A    between atoms: _483  and  _484
REMARK  223  A    between atoms: _484  and  _485
REMARK  224  A    between atoms: _484  and  _487
REMARK  225  A    between atoms: _487  and  _488
REMARK  226  A    between atoms: _488  and  _489
REMARK  227  A    between atoms: _489  and  _490
REMARK  228  A    between atoms: _492  and  _493
REMARK  229  A    between atoms: _493  and  _494
REMARK  230  A    between atoms: _493  and  _496
REMARK  231  A    between atoms: _496  and  _497
REMARK  232  A    between atoms: _497  and  _498
REMARK  233  A    between atoms: _501  and  _502
REMARK  234  A    between atoms: _502  and  _503
REMARK  235  A    between atoms: _502  and  _505
REMARK  236  A    between atoms: _505  and  _506
REMARK  237  A    between atoms: _509  and  _510
REMARK  238  A    between atoms: _510  and  _511
REMARK  239  A    between atoms: _510  and  _513
REMARK  240  A    between atoms: _513  and  _514
REMARK  241  A    between atoms: _519  and  _520
REMARK  242  A    between atoms: _520  and  _521
REMARK  243  A    between atoms: _520  and  _523
REMARK  244  A    between atoms: _523  and  _524
REMARK  245  A    between atoms: _527  and  _528
REMARK  246  A    between atoms: _528  and  _529
REMARK  247  A    between atoms: _528  and  _531
REMARK  248  A    between atoms: _531  and  _532
REMARK  249  A    between atoms: _535  and  _536
REMARK  250  A    between atoms: _536  and  _537
REMARK  251  A    between atoms: _536  and  _539
REMARK  252  A    between atoms: _539  and  _540
REMARK  253  A    between atoms: _543  and  _544
REMARK  254  A    between atoms: _544  and  _545
REMARK  255  A    between atoms: _544  and  _547
REMARK  256  A    between atoms: _547  and  _548
REMARK  257  A    between atoms: _552  and  _553
REMARK  258  A    between atoms: _558  and  _559
REMARK  259  A    between atoms: _559  and  _560
REMARK  260  A    between atoms: _559  and  _562
REMARK  261  A    between atoms: _562  and  _563
REMARK  262  A    between atoms: _566  and  _567
REMARK  263  A    between atoms: _567  and  _568
REMARK  264  A    between atoms: _567  and  _570
REMARK  265  A    between atoms: _570  and  _571
REMARK  266  A    between atoms: _571  and  _572
REMARK  267  A    between atoms: _572  and  _573
REMARK  268  A    between atoms: _575  and  _576
REMARK  269  A    between atoms: _576  and  _577
REMARK  270  A    between atoms: _576  and  _579
REMARK  271  A    between atoms: _579  and  _580
REMARK  272  A    between atoms: _580  and  _581
REMARK  273  A    between atoms: _584  and  _585
REMARK  274  A    between atoms: _585  and  _586
REMARK  275  A    between atoms: _585  and  _588
REMARK  276  A    between atoms: _588  and  _589
REMARK  277  A    between atoms: _592  and  _593
REMARK  278  A    between atoms: _593  and  _594
REMARK  279  A    between atoms: _593  and  _596
REMARK  280  A    between atoms: _596  and  _597
REMARK  281  A    between atoms: _597  and  _598
REMARK  282  A    between atoms: _598  and  _599
REMARK  283  A    between atoms: _603  and  _604
REMARK  284  A    between atoms: _604  and  _605
REMARK  285  A    between atoms: _604  and  _607
REMARK  286  A    between atoms: _610  and  _611
REMARK  287  A    between atoms: _611  and  _612
REMARK  288  A    between atoms: _611  and  _614
REMARK  289  A    between atoms: _614  and  _615
REMARK  290  A    between atoms: _618  and  _619
REMARK  291  A    between atoms: _619  and  _620
REMARK  292  A    between atoms: _619  and  _622
REMARK  293  A    between atoms: _625  and  _626
REMARK  294  A    between atoms: _626  and  _627
REMARK  295  A    between atoms: _626  and  _629
REMARK  296  A    between atoms: _629  and  _630
REMARK  297  A    between atoms: _633  and  _634
REMARK  298  A    between atoms: _634  and  _635
REMARK  299  A    between atoms: _634  and  _637
REMARK  300  A    between atoms: _640  and  _641
REMARK  301  A    between atoms: _641  and  _642
REMARK  302  A    between atoms: _641  and  _644
REMARK  303  A    between atoms: _644  and  _645
REMARK  304  A    between atoms: _648  and  _649
REMARK  305  A    between atoms: _649  and  _650
REMARK  306  A    between atoms: _649  and  _652
REMARK  307  A    between atoms: _655  and  _656
REMARK  308  A    between atoms: _656  and  _657
REMARK  309  A    between atoms: _659  and  _660
REMARK  310  A    between atoms: _660  and  _661
REMARK  311  A    between atoms: _660  and  _663
REMARK  312  A    between atoms: _663  and  _664
REMARK  313  A    between atoms: _667  and  _668
REMARK  314  A    between atoms: _668  and  _669
REMARK  315  A    between atoms: _671  and  _672
REMARK  316  A    between atoms: _672  and  _673
REMARK  317  A    between atoms: _672  and  _675
REMARK  318  A    between atoms: _675  and  _676
REMARK  319  A    between atoms: _676  and  _677
REMARK  320  A    between atoms: _679  and  _680
REMARK  321  A    between atoms: _680  and  _681
REMARK  322  A    between atoms: _680  and  _683
REMARK  323  A    between atoms: _686  and  _687
REMARK  324  A    between atoms: _687  and  _688
REMARK  325  A    between atoms: _687  and  _690
REMARK  326  A    between atoms: _690  and  _691
REMARK  327  A    between atoms: _691  and  _692
REMARK  328  A    between atoms: _692  and  _693
REMARK  329  A    between atoms: _695  and  _696
REMARK  330  A    between atoms: _696  and  _697
REMARK  331  A    between atoms: _700  and  _701
REMARK  332  A    between atoms: _701  and  _702
REMARK  333  A    between atoms: _701  and  _704
REMARK  334  A    between atoms: _704  and  _705
REMARK  335  A    between atoms: _708  and  _709
REMARK  336  A    between atoms: _709  and  _710
REMARK  337  A    between atoms: _709  and  _712
REMARK  338  A    between atoms: _712  and  _713
REMARK  339  A    between atoms: _716  and  _717
REMARK  340  A    between atoms: _717  and  _720
REMARK  341  A    between atoms: _720  and  _721
REMARK  342  A    between atoms: _733  and  _734
REMARK  343  A    between atoms: _733  and  _735
REMARK  344  A    between atoms: _741  and  _744
REMARK  345  A    between atoms: _744  and  _745
REMARK  346  A    between atoms: _758  and  _759
REMARK  347  A    between atoms: _758  and  _761
REMARK  348  A    between atoms: _759  and  _760
REMARK  349  A    between atoms: _765  and  _766
REMARK  350  A    between atoms: _768  and  _769
REMARK  351  A    between atoms: _769  and  _770
REMARK  352  A    between atoms: _769  and  _772
REMARK  353  A    between atoms: _775  and  _776
REMARK  354  A    between atoms: _776  and  _777
REMARK  355  A    between atoms: _776  and  _779
REMARK  356  A    between atoms: _779  and  _780
REMARK  357  A    between atoms: _783  and  _784
REMARK  358  A    between atoms: _784  and  _785
REMARK  359  A    between atoms: _788  and  _789
REMARK  360  A    between atoms: _789  and  _790
REMARK  361  A    between atoms: _789  and  _792
REMARK  362  A    between atoms: _792  and  _793
REMARK  363  A    between atoms: _793  and  _794
REMARK  364  A    between atoms: _794  and  _795
REMARK  365  A    between atoms: _797  and  _798
REMARK  366  A    between atoms: _798  and  _799
REMARK  367  A    between atoms: _798  and  _801
REMARK  368  A    between atoms: _803  and  _804
REMARK  369  A    between atoms: _804  and  _805
REMARK  370  A    between atoms: _807  and  _808
REMARK  371  A    between atoms: _808  and  _809
REMARK  372  A    between atoms: _808  and  _811
REMARK  373  A    between atoms: _814  and  _815
REMARK  374  A    between atoms: _815  and  _816
REMARK  375  A    between atoms: _815  and  _818
REMARK  376  A    between atoms: _818  and  _819
REMARK  377  A    between atoms: _819  and  _820
REMARK  378  A    between atoms: _820  and  _821
REMARK  379  A    between atoms: _823  and  _824
REMARK  380  A    between atoms: _824  and  _825
REMARK  381  A    between atoms: _828  and  _829
REMARK  382  A    between atoms: _829  and  _830
REMARK  383  A    between atoms: _829  and  _832
REMARK  384  A    between atoms: _832  and  _833
REMARK  385  A    between atoms: _839  and  _840
REMARK  386  A    between atoms: _840  and  _841
REMARK  387  A    between atoms: _840  and  _843
REMARK  388  A    between atoms: _843  and  _844
REMARK  389  A    between atoms: _844  and  _845
REMARK  390  A    between atoms: _847  and  _848
REMARK  391  A    between atoms: _848  and  _849
REMARK  392  A    between atoms: _848  and  _851
REMARK  393  A    between atoms: _851  and  _852
REMARK  394  A    between atoms: _852  and  _853
REMARK  395  A    between atoms: _856  and  _857
REMARK  396  A    between atoms: _857  and  _858
REMARK  397  A    between atoms: _861  and  _862
REMARK  398  A    between atoms: _862  and  _863
REMARK  399  A    between atoms: _862  and  _865
REMARK  400  A    between atoms: _865  and  _866
REMARK  401  A    between atoms: _869  and  _870
REMARK  402  A    between atoms: _870  and  _871
REMARK  403  A    between atoms: _870  and  _873
REMARK  404  A    between atoms: _873  and  _874
REMARK  405  A    between atoms: _874  and  _875
REMARK  406  A    between atoms: _878  and  _879
REMARK  407  A    between atoms: _879  and  _880
REMARK  408  A    between atoms: _883  and  _884
REMARK  409  A    between atoms: _884  and  _885
REMARK  410  A    between atoms: _887  and  _888
REMARK  411  A    between atoms: _888  and  _889
REMARK  412  A    between atoms: _892  and  _893
REMARK  413  A    between atoms: _893  and  _894
REMARK  414  A    between atoms: _893  and  _896
REMARK  415  A    between atoms: _896  and  _897
REMARK  416  A    between atoms: _900  and  _901
REMARK  417  A    between atoms: _901  and  _902
REMARK  418  A    between atoms: _901  and  _904
REMARK  419  A    between atoms: _904  and  _905
REMARK  420  A    between atoms: _908  and  _909
REMARK  421  A    between atoms: _909  and  _910
REMARK  422  A    between atoms: _909  and  _912
REMARK  423  A    between atoms: _914  and  _915
REMARK  424  A    between atoms: _915  and  _916
REMARK  425  A    between atoms: _915  and  _918
REMARK  426  A    between atoms: _918  and  _919
REMARK  427  A    between atoms: _919  and  _920
REMARK  428  A    between atoms: _922  and  _923
REMARK  429  A    between atoms: _923  and  _924
REMARK  430  A    between atoms: _923  and  _926
REMARK  431  A    between atoms: _926  and  _927
REMARK  432  A    between atoms: _930  and  _931
REMARK  433  A    between atoms: _931  and  _932
REMARK  434  A    between atoms: _934  and  _935
REMARK  435  A    between atoms: _935  and  _936
REMARK  436  A    between atoms: _935  and  _938
REMARK  437  A    between atoms: _938  and  _939
REMARK  438  A    between atoms: _939  and  _940
REMARK  439  A    between atoms: _943  and  _944
REMARK  440  A    between atoms: _944  and  _945
REMARK  441  A    between atoms: _944  and  _947
REMARK  442  A    between atoms: _947  and  _948
REMARK  443  A    between atoms: _954  and  _955
REMARK  444  A    between atoms: _955  and  _956
REMARK  445  A    between atoms: _958  and  _959
REMARK  446  A    between atoms: _959  and  _960
REMARK  447  A    between atoms: _959  and  _962
REMARK  448  A    between atoms: _965  and  _966
REMARK  449  A    between atoms: _966  and  _967
REMARK  450  A    between atoms: _969  and  _970
REMARK  451  A    between atoms: _970  and  _971
REMARK  452  A    between atoms: _970  and  _973
REMARK  453  A    between atoms: _973  and  _974
REMARK  454  A    between atoms: _980  and  _981
REMARK  455  A    between atoms: _981  and  _982
REMARK  456  A    between atoms: _981  and  _984
REMARK  457  A    between atoms: _984  and  _985
REMARK  458  A    between atoms: _992  and  _993
REMARK  459  A    between atoms: _993  and  _994
REMARK  460  A    between atoms: _993  and  _996
REMARK  461  A    between atoms: _998  and  _999
REMARK  462  A    between atoms: _999  and  _1000
REMARK  463  A    between atoms: _1003  and  _1004
REMARK  464  A    between atoms: _1004  and  _1005
REMARK  465  A    between atoms: _1004  and  _1007
REMARK  466  A    between atoms: _1007  and  _1008
REMARK  467  A    between atoms: _1015  and  _1016
REMARK  468  A    between atoms: _1016  and  _1017
REMARK  469  A    between atoms: _1016  and  _1019
REMARK  470  A    between atoms: _1019  and  _1020
REMARK  471  A    between atoms: _1023  and  _1024
REMARK  472  A    between atoms: _1024  and  _1025
REMARK  473  A    between atoms: _1024  and  _1027
REMARK  474  A    between atoms: _1030  and  _1031
REMARK  475  A    between atoms: _1031  and  _1032
REMARK  476  A    between atoms: _1035  and  _1036
REMARK  477  A    between atoms: _1036  and  _1037
REMARK  478  A    between atoms: _1036  and  _1039
REMARK  479  A    between atoms: _1039  and  _1040
REMARK  480  A    between atoms: _1040  and  _1041
REMARK  481  A    between atoms: _1044  and  _1045
REMARK  482  A    between atoms: _1045  and  _1046
REMARK  483  A    between atoms: _1045  and  _1048
REMARK  484  A    between atoms: _1048  and  _1049
REMARK  485  A    between atoms: _1049  and  _1050
REMARK  486  A    between atoms: _1050  and  _1051
REMARK  487  A    between atoms: _1053  and  _1054
REMARK  488  A    between atoms: _1054  and  _1055
REMARK  489  A    between atoms: _1054  and  _1057
REMARK  490  A    between atoms: _1060  and  _1061
REMARK  491  A    between atoms: _1061  and  _1062
REMARK  492  A    between atoms: _1061  and  _1064
REMARK  493  A    between atoms: _1067  and  _1068
REMARK  494  A    between atoms: _1068  and  _1069
REMARK  495  A    between atoms: _1068  and  _1071
REMARK  496  A    between atoms: _1074  and  _1075
REMARK  497  A    between atoms: _1075  and  _1076
REMARK  498  A    between atoms: _1075  and  _1078
REMARK  499  A    between atoms: _1078  and  _1079
REMARK  500  A    between atoms: _1082  and  _1083
REMARK  501  A    between atoms: _1083  and  _1084
REMARK  502  A    between atoms: _1083  and  _1086
REMARK  503  A    between atoms: _1089  and  _1090
REMARK  504  A    between atoms: _1090  and  _1091
REMARK  505  A    between atoms: _1090  and  _1093
REMARK  506  A    between atoms: _1093  and  _1094
REMARK  507  A    between atoms: _1094  and  _1095
REMARK  508  A    between atoms: _1095  and  _1096
REMARK  509  A    between atoms: _1098  and  _1099
REMARK  510  A    between atoms: _1099  and  _1100
REMARK  511  A    between atoms: _1099  and  _1102
REMARK  512  A    between atoms: _1102  and  _1103
REMARK  513  A    between atoms: _1108  and  _1109
REMARK  514  A    between atoms: _1109  and  _1110
REMARK  515  A    between atoms: _1109  and  _1112
REMARK  516  A    between atoms: _1112  and  _1113
REMARK  517  A    between atoms: _1116  and  _1117
REMARK  518  A    between atoms: _1117  and  _1118
REMARK  519  A    between atoms: _1117  and  _1120
REMARK  520  A    between atoms: _1120  and  _1121
REMARK  521  A    between atoms: _1124  and  _1125
REMARK  522  A    between atoms: _1125  and  _1126
REMARK  523  A    between atoms: _1125  and  _1128
REMARK  524  A    between atoms: _1128  and  _1129
REMARK  525  A    between atoms: _1132  and  _1133
REMARK  526  A    between atoms: _1133  and  _1134
REMARK  527  A    between atoms: _1133  and  _1136
REMARK  528  A    between atoms: _1136  and  _1137
REMARK  529  A    between atoms: _1137  and  _1138
REMARK  530  A    between atoms: _1141  and  _1142
REMARK  531  A    between atoms: _1142  and  _1143
REMARK  532  A    between atoms: _1142  and  _1145
REMARK  533  A    between atoms: _1145  and  _1146
REMARK  534  A    between atoms: _1146  and  _1147
REMARK  535  A    between atoms: _1150  and  _1151
REMARK  536  A    between atoms: _1151  and  _1152
REMARK  537  A    between atoms: _1151  and  _1154
REMARK  538  A    between atoms: _1154  and  _1155
REMARK  539  A    between atoms: _1162  and  _1163
REMARK  540  A    between atoms: _1163  and  _1164
REMARK  541  A    between atoms: _1167  and  _1168
REMARK  542  A    between atoms: _1168  and  _1169
REMARK  543  A    between atoms: _1168  and  _1171
REMARK  544  A    between atoms: _1171  and  _1172
REMARK  545  A    between atoms: _1181  and  _1182
REMARK  546  A    between atoms: _1182  and  _1183
REMARK  547  A    between atoms: _1182  and  _1185
REMARK  548  A    between atoms: _1185  and  _1186
REMARK  549  A    between atoms: _1186  and  _1187
REMARK  550  A    between atoms: _1190  and  _1191
REMARK  551  A    between atoms: _1191  and  _1192
REMARK  552  A    between atoms: _1191  and  _1194
REMARK  553  A    between atoms: _1196  and  _1197
REMARK  554  A    between atoms: _1197  and  _1198
REMARK  555  A    between atoms: _1197  and  _1200
REMARK  556  A    between atoms: _1202  and  _1203
REMARK  557  A    between atoms: _1203  and  _1204
REMARK  558  A    between atoms: _1207  and  _1208
REMARK  559  A    between atoms: _1208  and  _1209
REMARK  560  A    between atoms: _1211  and  _1212
REMARK  561  A    between atoms: _1212  and  _1213
REMARK  562  A    between atoms: _1215  and  _1216
REMARK  563  A    between atoms: _1216  and  _1217
REMARK  564  A    between atoms: _1216  and  _1219
REMARK  565  A    between atoms: _1221  and  _1222
REMARK  566  A    between atoms: _1222  and  _1223
REMARK  567  A    between atoms: _1222  and  _1225
REMARK  568  A    between atoms: _1225  and  _1226
REMARK  569  A    between atoms: _1232  and  _1233
REMARK  570  A    between atoms: _1233  and  _1234
REMARK  571  A    between atoms: _1233  and  _1236
REMARK  572  A    between atoms: _1239  and  _1240
REMARK  573  A    between atoms: _1240  and  _1241
REMARK  574  A    between atoms: _1240  and  _1243
REMARK  575  A    between atoms: _1247  and  _1249
REMARK  576  A    between atoms: _1247  and  _1252
REMARK  577  A    between atoms: _1251  and  _1252
REMARK  578  A    between atoms: _1251  and  _1254
REMARK  579  A    between atoms: _1253  and  _1254
REMARK  580  A    between atoms: _1253  and  _1256
REMARK  581  A    between atoms: _1254  and  _1255
REMARK  582  A    between atoms: _1255  and  _1257
REMARK  583  A    between atoms: _1256  and  _1258
REMARK  584  A    between atoms: _1265  and  _1266
REMARK  585  A    between atoms: _1266  and  _1267
REMARK  586  A    between atoms: _1266  and  _1269
REMARK  587  A    between atoms: _1272  and  _1273
REMARK  588  A    between atoms: _1273  and  _1274
REMARK  589  A    between atoms: _1273  and  _1276
REMARK  590  A    between atoms: _1276  and  _1277
REMARK  591  A    between atoms: _1280  and  _1281
REMARK  592  A    between atoms: _1281  and  _1282
REMARK  593  A    between atoms: _1281  and  _1284
REMARK  594  A    between atoms: _1287  and  _1288
REMARK  595  A    between atoms: _1288  and  _1289
REMARK  596  A    between atoms: _1291  and  _1292
REMARK  597  A    between atoms: _1292  and  _1293
REMARK  598  A    between atoms: _1292  and  _1295
REMARK  599  A    between atoms: _1295  and  _1296
REMARK  600  A    between atoms: _1296  and  _1297
REMARK  601  A    between atoms: _1301  and  _1302
REMARK  602  A    between atoms: _1307  and  _1308
REMARK  603  A    between atoms: _1308  and  _1309
REMARK  604  A    between atoms: _1308  and  _1311
REMARK  605  A    between atoms: _1311  and  _1312
REMARK  606  A    between atoms: _1312  and  _1313
REMARK  607  A    between atoms: _1315  and  _1316
REMARK  608  A    between atoms: _1316  and  _1317
REMARK  609  A    between atoms: _1319  and  _1320
REMARK  610  A    between atoms: _1320  and  _1321
REMARK  611  A    between atoms: _1320  and  _1323
REMARK  612  A    between atoms: _1323  and  _1324
REMARK  613  A    between atoms: _1324  and  _1325
REMARK  614  A    between atoms: _1325  and  _1326
REMARK  615  A    between atoms: _1330  and  _1331
REMARK  616  A    between atoms: _1331  and  _1332
REMARK  617  A    between atoms: _1334  and  _1335
REMARK  618  A    between atoms: _1335  and  _1336
REMARK  619  A    between atoms: _1335  and  _1338
REMARK  620  A    between atoms: _1341  and  _1342
REMARK  621  A    between atoms: _1342  and  _1343
REMARK  622  A    between atoms: _1342  and  _1345
REMARK  623  A    between atoms: _1345  and  _1346
REMARK  624  A    between atoms: _1346  and  _1347
REMARK  625  A    between atoms: _1347  and  _1348
REMARK  626  A    between atoms: _1350  and  _1351
REMARK  627  A    between atoms: _1351  and  _1352
REMARK  628  A    between atoms: _1351  and  _1354
REMARK  629  A    between atoms: _1357  and  _1358
REMARK  630  A    between atoms: _1358  and  _1359
REMARK  631  A    between atoms: _1358  and  _1361
REMARK  632  A    between atoms: _1361  and  _1362
REMARK  633  A    between atoms: _1365  and  _1366
REMARK  634  A    between atoms: _1366  and  _1367
REMARK  635  A    between atoms: _1366  and  _1369
REMARK  636  A    between atoms: _1369  and  _1370
REMARK  637  A    between atoms: _1373  and  _1374
REMARK  638  A    between atoms: _1374  and  _1375
REMARK  639  A    between atoms: _1374  and  _1377
REMARK  640  A    between atoms: _1377  and  _1378
REMARK  641  A    between atoms: _1383  and  _1384
REMARK  642  A    between atoms: _1384  and  _1385
REMARK  643  A    between atoms: _1384  and  _1387
REMARK  644  A    between atoms: _1387  and  _1388
REMARK  645  A    between atoms: _1391  and  _1392
REMARK  646  A    between atoms: _1392  and  _1393
REMARK  647  A    between atoms: _1392  and  _1395
REMARK  648  A    between atoms: _1395  and  _1396
REMARK  649  A    between atoms: _1396  and  _1397
REMARK  650  A    between atoms: _1397  and  _1398
REMARK  651  A    between atoms: _1400  and  _1401
REMARK  652  A    between atoms: _1401  and  _1402
REMARK  653  A    between atoms: _1401  and  _1404
REMARK  654  A    between atoms: _1404  and  _1405
REMARK  655  A    between atoms: _1405  and  _1406
REMARK  656  A    between atoms: _1409  and  _1410
REMARK  657  A    between atoms: _1410  and  _1411
REMARK  658  A    between atoms: _1410  and  _1413
REMARK  659  A    between atoms: _1413  and  _1414
REMARK  660  A    between atoms: _1417  and  _1418
REMARK  661  A    between atoms: _1418  and  _1419
REMARK  662  A    between atoms: _1418  and  _1421
REMARK  663  A    between atoms: _1421  and  _1422
REMARK  664  A    between atoms: _1422  and  _1423
REMARK  665  A    between atoms: _1426  and  _1427
REMARK  666  A    between atoms: _1427  and  _1428
REMARK  667  A    between atoms: _1427  and  _1430
REMARK  668  A    between atoms: _1433  and  _1434
REMARK  669  A    between atoms: _1434  and  _1435
REMARK  670  A    between atoms: _1434  and  _1437
REMARK  671  A    between atoms: _1437  and  _1438
REMARK  672  A    between atoms: _1438  and  _1439
REMARK  673  A    between atoms: _1442  and  _1443
REMARK  674  A    between atoms: _1443  and  _1444
REMARK  675  A    between atoms: _1443  and  _1446
REMARK  676  A    between atoms: _1446  and  _1447
REMARK  677  A    between atoms: _1454  and  _1455
REMARK  678  A    between atoms: _1455  and  _1456
REMARK  679  A    between atoms: _1455  and  _1458
REMARK  680  A    between atoms: _1458  and  _1459
REMARK  681  A    between atoms: _1462  and  _1463
REMARK  682  A    between atoms: _1463  and  _1464
REMARK  683  A    between atoms: _1463  and  _1466
REMARK  684  A    between atoms: _1466  and  _1467
REMARK  685  A    between atoms: _1467  and  _1468
REMARK  686  A    between atoms: _1471  and  _1472
REMARK  687  A    between atoms: _1472  and  _1473
REMARK  688  A    between atoms: _1472  and  _1475
REMARK  689  A    between atoms: _1475  and  _1476
REMARK  690  A    between atoms: _1476  and  _1477
REMARK  691  A    between atoms: _1480  and  _1481
REMARK  692  A    between atoms: _1481  and  _1482
REMARK  693  A    between atoms: _1481  and  _1484
REMARK  694  A    between atoms: _1484  and  _1485
REMARK  695  A    between atoms: _1485  and  _1486
REMARK  696  A    between atoms: _1486  and  _1487
REMARK  697  A    between atoms: _1491  and  _1492
REMARK  698  A    between atoms: _1492  and  _1493
REMARK  699  A    between atoms: _1492  and  _1495
REMARK  700  A    between atoms: _1495  and  _1496
REMARK  701  A    between atoms: _1496  and  _1497
REMARK  702  A    between atoms: _1497  and  _1498
REMARK  703  A    between atoms: _1502  and  _1503
REMARK  704  A    between atoms: _1503  and  _1504
REMARK  705  A    between atoms: _1503  and  _1506
REMARK  706  A    between atoms: _1506  and  _1507
REMARK  707  A    between atoms: _1510  and  _1511
REMARK  708  A    between atoms: _1511  and  _1512
REMARK  709  A    between atoms: _1511  and  _1514
REMARK  710  A    between atoms: _1514  and  _1515
REMARK  711  A    between atoms: _1515  and  _1516
REMARK  712  A    between atoms: _1516  and  _1517
REMARK  713  A    between atoms: _1519  and  _1520
REMARK  714  A    between atoms: _1520  and  _1521
REMARK  715  A    between atoms: _1520  and  _1523
REMARK  716  A    between atoms: _1523  and  _1524
REMARK  717  A    between atoms: _1524  and  _1525
REMARK  718  A    between atoms: _1528  and  _1529
REMARK  719  A    between atoms: _1529  and  _1530
REMARK  720  A    between atoms: _1529  and  _1532
REMARK  721  A    between atoms: _1532  and  _1533
REMARK  722  A    between atoms: _1536  and  _1537
REMARK  723  A    between atoms: _1537  and  _1538
REMARK  724  A    between atoms: _1537  and  _1540
REMARK  725  A    between atoms: _1543  and  _1544
REMARK  726  A    between atoms: _1544  and  _1545
REMARK  727  A    between atoms: _1544  and  _1547
REMARK  728  A    between atoms: _1547  and  _1548
REMARK  729  A    between atoms: _1548  and  _1549
REMARK  730  A    between atoms: _1549  and  _1550
REMARK  731  A    between atoms: _1552  and  _1553
REMARK  732  A    between atoms: _1553  and  _1554
REMARK  733  A    between atoms: _1553  and  _1556
REMARK  734  A    between atoms: _1556  and  _1557
REMARK  735  A    between atoms: _1557  and  _1558
REMARK  736  A    between atoms: _1558  and  _1559
REMARK  737  A    between atoms: _1561  and  _1562
REMARK  738  A    between atoms: _1562  and  _1563
REMARK  739  A    between atoms: _1562  and  _1565
REMARK  740  A    between atoms: _1565  and  _1566
REMARK  741  A    between atoms: _1571  and  _1572
REMARK  742  A    between atoms: _1572  and  _1573
REMARK  743  A    between atoms: _1572  and  _1575
REMARK  744  A    between atoms: _1577  and  _1578
REMARK  745  A    between atoms: _1578  and  _1579
REMARK  746  A    between atoms: _1578  and  _1581
REMARK  747  A    between atoms: _1581  and  _1582
REMARK  748  A    between atoms: _1582  and  _1583
REMARK  749  A    between atoms: _1586  and  _1587
REMARK  750  A    between atoms: _1587  and  _1588
REMARK  751  A    between atoms: _1587  and  _1590
REMARK  752  A    between atoms: _1590  and  _1591
REMARK  753  A    between atoms: _1597  and  _1598
REMARK  754  A    between atoms: _1598  and  _1599
REMARK  755  A    between atoms: _1598  and  _1601
REMARK  756  A    between atoms: _1601  and  _1602
REMARK  757  A    between atoms: _1605  and  _1606
REMARK  758  A    between atoms: _1606  and  _1607
REMARK  759  A    between atoms: _1609  and  _1610
REMARK  760  A    between atoms: _1610  and  _1611
REMARK  761  A    between atoms: _1610  and  _1613
REMARK  762  A    between atoms: _1613  and  _1614
REMARK  763  A    between atoms: _1622  and  _1623
REMARK  764  A    between atoms: _1628  and  _1629
REMARK  765  A    between atoms: _1629  and  _1630
REMARK  766  A    between atoms: _1629  and  _1632
REMARK  767  A    between atoms: _1632  and  _1633
REMARK  768  A    between atoms: _1636  and  _1637
REMARK  769  A    between atoms: _1637  and  _1638
REMARK  770  A    between atoms: _1637  and  _1640
REMARK  771  A    between atoms: _1643  and  _1644
REMARK  772  A    between atoms: _1644  and  _1645
REMARK  773  A    between atoms: _1644  and  _1647
REMARK  774  A    between atoms: _1647  and  _1648
REMARK  775  A    between atoms: _1651  and  _1652
REMARK  776  A    between atoms: _1652  and  _1653
REMARK  777  A    between atoms: _1652  and  _1655
REMARK  778  A    between atoms: _1655  and  _1656
REMARK  779  A    between atoms: _1662  and  _1663
REMARK  780  A    between atoms: _1663  and  _1664
REMARK  781  A    between atoms: _1663  and  _1666
REMARK  782  A    between atoms: _1669  and  _1670
REMARK  783  A    between atoms: _1670  and  _1671
REMARK  784  A    between atoms: _1670  and  _1673
REMARK  785  A    between atoms: _1673  and  _1674
REMARK  786  A    between atoms: _1674  and  _1675
REMARK                            x       y       z     vdW  Elec       q    Type
REMARK                         _______ _______ _______ _____ _____    ______ ____
ROOT
ATOM      1  C   UNL     1      -3.382   6.891  18.397  0.00  0.00    +0.279 C 
ATOM      2  O   UNL     1      -3.762   5.980  19.093  0.00  0.00    -0.279 OA
ENDROOT
TORSDOF 0
REMARK  Name = /Users/mlugowska/PhD/ML_residence_time_prediction/protein_files/5J64_protein.pdb
REMARK  786 active torsions:
REMARK  status: ('A' for Active; 'I' for Inactive)
REMARK    1  A    between atoms: _2  and  _3
REMARK    2  A    between atoms: _2  and  _5
REMARK    3  A    between atoms: _5  and  _6
REMARK    4  A    between atoms: _6  and  _7
REMARK    5  A    between atoms: _10  and  _11
REMARK    6  A    between atoms: _11  and  _12
REMARK    7  A    between atoms: _11  and  _14
REMARK    8  A    between atoms: _17  and  _18
REMARK    9  A    between atoms: _18  and  _19
REMARK   10  A    between atoms: _18  and  _21
REMARK   11  A    between atoms: _21  and  _22
REMARK   12  A    between atoms: _22  and  _23
REMARK   13  A    between atoms: _26  and  _27
REMARK   14  A    between atoms: _27  and  _28
REMARK   15  A    between atoms: _27  and  _30
REMARK   16  A    between atoms: _33  and  _34
REMARK   17  A    between atoms: _34  and  _35
REMARK   18  A    between atoms: _34  and  _37
REMARK   19  A    between atoms: _37  and  _38
REMARK   20  A    between atoms: _44  and  _45
REMARK   21  A    between atoms: _45  and  _46
REMARK   22  A    between atoms: _49  and  _50
REMARK   23  A    between atoms: _50  and  _51
REMARK   24  A    between atoms: _50  and  _53
REMARK   25  A    between atoms: _53  and  _54
REMARK   26  A    between atoms: _60  and  _61
REMARK   27  A    between atoms: _61  and  _62
REMARK   28  A    between atoms: _61  and  _64
REMARK   29  A    between atoms: _64  and  _65
REMARK   30  A    between atoms: _65  and  _66
REMARK   31  A    between atoms: _69  and  _70
REMARK   32  A    between atoms: _70  and  _71
REMARK   33  A    between atoms: _74  and  _75
REMARK   34  A    between atoms: _75  and  _76
REMARK   35  A    between atoms: _75  and  _78
REMARK   36  A    between atoms: _78  and  _79
REMARK   37  A    between atoms: _79  and  _80
REMARK   38  A    between atoms: _83  and  _84
REMARK   39  A    between atoms: _84  and  _85
REMARK   40  A    between atoms: _84  and  _87
REMARK   41  A    between atoms: _87  and  _88
REMARK   42  A    between atoms: _91  and  _92
REMARK   43  A    between atoms: _92  and  _93
REMARK   44  A    between atoms: _96  and  _97
REMARK   45  A    between atoms: _97  and  _98
REMARK   46  A    between atoms: _97  and  _100
REMARK   47  A    between atoms: _100  and  _101
REMARK   48  A    between atoms: _101  and  _102
REMARK   49  A    between atoms: _105  and  _106
REMARK   50  A    between atoms: _106  and  _107
REMARK   51  A    between atoms: _106  and  _109
REMARK   52  A    between atoms: _109  and  _110
REMARK   53  A    between atoms: _113  and  _114
REMARK   54  A    between atoms: _114  and  _115
REMARK   55  A    between atoms: _114  and  _117
REMARK   56  A    between atoms: _117  and  _118
REMARK   57  A    between atoms: _118  and  _119
REMARK   58  A    between atoms: _121  and  _122
REMARK   59  A    between atoms: _122  and  _123
REMARK   60  A    between atoms: _122  and  _125
REMARK   61  A    between atoms: _127  and  _128
REMARK   62  A    between atoms: _128  and  _129
REMARK   63  A    between atoms: _128  and  _131
REMARK   64  A    between atoms: _131  and  _132
REMARK   65  A    between atoms: _135  and  _136
REMARK   66  A    between atoms: _136  and  _137
REMARK   67  A    between atoms: _136  and  _139
REMARK   68  A    between atoms: _139  and  _140
REMARK   69  A    between atoms: _143  and  _144
REMARK   70  A    between atoms: _144  and  _145
REMARK   71  A    between atoms: _144  and  _147
REMARK   72  A    between atoms: _147  and  _148
REMARK   73  A    between atoms: _151  and  _152
REMARK   74  A    between atoms: _152  and  _153
REMARK   75  A    between atoms: _152  and  _155
REMARK   76  A    between atoms: _155  and  _156
REMARK   77  A    between atoms: _159  and  _160
REMARK   78  A    between atoms: _160  and  _161
REMARK   79  A    between atoms: _160  and  _163
REMARK   80  A    between atoms: _166  and  _167
REMARK   81  A    between atoms: _167  and  _170
REMARK   82  A    between atoms: _170  and  _171
REMARK   83  A    between atoms: _181  and  _183
REMARK   84  A    between atoms: _183  and  _184
REMARK   85  A    between atoms: _189  and  _194
REMARK   86  A    between atoms: _192  and  _195
REMARK   87  A    between atoms: _193  and  _194
REMARK   88  A    between atoms: _195  and  _196
REMARK   89  A    between atoms: _201  and  _202
REMARK   90  A    between atoms: _202  and  _203
REMARK   91  A    between atoms: _202  and  _205
REMARK   92  A    between atoms: _207  and  _208
REMARK   93  A    between atoms: _208  and  _209
REMARK   94  A    between atoms: _208  and  _211
REMARK   95  A    between atoms: _211  and  _212
REMARK   96  A    between atoms: _215  and  _216
REMARK   97  A    between atoms: _216  and  _217
REMARK   98  A    between atoms: _216  and  _219
REMARK   99  A    between atoms: _219  and  _220
REMARK  100  A    between atoms: _220  and  _221
REMARK  101  A    between atoms: _221  and  _222
REMARK  102  A    between atoms: _224  and  _225
REMARK  103  A    between atoms: _225  and  _226
REMARK  104  A    between atoms: _225  and  _228
REMARK  105  A    between atoms: _228  and  _229
REMARK  106  A    between atoms: _229  and  _230
REMARK  107  A    between atoms: _233  and  _234
REMARK  108  A    between atoms: _234  and  _235
REMARK  109  A    between atoms: _234  and  _237
REMARK  110  A    between atoms: _237  and  _238
REMARK  111  A    between atoms: _241  and  _242
REMARK  112  A    between atoms: _242  and  _243
REMARK  113  A    between atoms: _242  and  _245
REMARK  114  A    between atoms: _245  and  _246
REMARK  115  A    between atoms: _252  and  _253
REMARK  116  A    between atoms: _253  and  _254
REMARK  117  A    between atoms: _253  and  _256
REMARK  118  A    between atoms: _256  and  _257
REMARK  119  A    between atoms: _260  and  _261
REMARK  120  A    between atoms: _261  and  _262
REMARK  121  A    between atoms: _261  and  _264
REMARK  122  A    between atoms: _264  and  _265
REMARK  123  A    between atoms: _265  and  _266
REMARK  124  A    between atoms: _266  and  _267
REMARK  125  A    between atoms: _271  and  _272
REMARK  126  A    between atoms: _272  and  _273
REMARK  127  A    between atoms: _272  and  _275
REMARK  128  A    between atoms: _275  and  _276
REMARK  129  A    between atoms: _276  and  _277
REMARK  130  A    between atoms: _280  and  _281
REMARK  131  A    between atoms: _281  and  _282
REMARK  132  A    between atoms: _281  and  _284
REMARK  133  A    between atoms: _284  and  _285
REMARK  134  A    between atoms: _288  and  _289
REMARK  135  A    between atoms: _289  and  _292
REMARK  136  A    between atoms: _292  and  _293
REMARK  137  A    between atoms: _309  and  _310
REMARK  138  A    between atoms: _309  and  _312
REMARK  139  A    between atoms: _312  and  _313
REMARK  140  A    between atoms: _316  and  _317
REMARK  141  A    between atoms: _317  and  _318
REMARK  142  A    between atoms: _317  and  _320
REMARK  143  A    between atoms: _322  and  _323
REMARK  144  A    between atoms: _323  and  _324
REMARK  145  A    between atoms: _323  and  _326
REMARK  146  A    between atoms: _328  and  _329
REMARK  147  A    between atoms: _329  and  _330
REMARK  148  A    between atoms: _329  and  _332
REMARK  149  A    between atoms: _332  and  _333
REMARK  150  A    between atoms: _336  and  _337
REMARK  151  A    between atoms: _337  and  _338
REMARK  152  A    between atoms: _341  and  _342
REMARK  153  A    between atoms: _342  and  _343
REMARK  154  A    between atoms: _342  and  _345
REMARK  155  A    between atoms: _345  and  _346
REMARK  156  A    between atoms: _349  and  _350
REMARK  157  A    between atoms: _350  and  _351
REMARK  158  A    between atoms: _350  and  _353
REMARK  159  A    between atoms: _353  and  _354
REMARK  160  A    between atoms: _357  and  _358
REMARK  161  A    between atoms: _358  and  _359
REMARK  162  A    between atoms: _358  and  _361
REMARK  163  A    between atoms: _361  and  _362
REMARK  164  A    between atoms: _362  and  _363
REMARK  165  A    between atoms: _363  and  _364
REMARK  166  A    between atoms: _366  and  _367
REMARK  167  A    between atoms: _367  and  _368
REMARK  168  A    between atoms: _367  and  _370
REMARK  169  A    between atoms: _370  and  _371
REMARK  170  A    between atoms: _374  and  _375
REMARK  171  A    between atoms: _375  and  _376
REMARK  172  A    between atoms: _375  and  _378
REMARK  173  A    between atoms: _378  and  _379
REMARK  174  A    between atoms: _379  and  _380
REMARK  175  A    between atoms: _380  and  _381
REMARK  176  A    between atoms: _385  and  _386
REMARK  177  A    between atoms: _386  and  _387
REMARK  178  A    between atoms: _386  and  _389
REMARK  179  A    between atoms: _389  and  _390
REMARK  180  A    between atoms: _397  and  _398
REMARK  181  A    between atoms: _398  and  _399
REMARK  182  A    between atoms: _398  and  _401
REMARK  183  A    between atoms: _401  and  _402
REMARK  184  A    between atoms: _402  and  _403
REMARK  185  A    between atoms: _406  and  _407
REMARK  186  A    between atoms: _407  and  _408
REMARK  187  A    between atoms: _407  and  _410
REMARK  188  A    between atoms: _412  and  _413
REMARK  189  A    between atoms: _413  and  _414
REMARK  190  A    between atoms: _413  and  _416
REMARK  191  A    between atoms: _416  and  _417
REMARK  192  A    between atoms: _420  and  _421
REMARK  193  A    between atoms: _421  and  _422
REMARK  194  A    between atoms: _421  and  _424
REMARK  195  A    between atoms: _427  and  _428
REMARK  196  A    between atoms: _428  and  _429
REMARK  197  A    between atoms: _428  and  _431
REMARK  198  A    between atoms: _431  and  _432
REMARK  199  A    between atoms: _436  and  _437
REMARK  200  A    between atoms: _442  and  _443
REMARK  201  A    between atoms: _443  and  _444
REMARK  202  A    between atoms: _443  and  _446
REMARK  203  A    between atoms: _448  and  _449
REMARK  204  A    between atoms: _449  and  _450
REMARK  205  A    between atoms: _449  and  _452
REMARK  206  A    between atoms: _452  and  _453
REMARK  207  A    between atoms: _453  and  _454
REMARK  208  A    between atoms: _454  and  _455
REMARK  209  A    between atoms: _457  and  _458
REMARK  210  A    between atoms: _458  and  _459
REMARK  211  A    between atoms: _458  and  _461
REMARK  212  A    between atoms: _461  and  _462
REMARK  213  A    between atoms: _465  and  _466
REMARK  214  A    between atoms: _466  and  _467
REMARK  215  A    between atoms: _466  and  _469
REMARK  216  A    between atoms: _469  and  _470
REMARK  217  A    between atoms: _473  and  _474
REMARK  218  A    between atoms: _474  and  _475
REMARK  219  A    between atoms: _474  and  _477
REMARK  220  A    between atoms: _479  and  _480
REMARK  221  A    between atoms: _480  and  _481
REMARK  222  A    between atoms: _483  and  _484
REMARK  223  A    between atoms: _484  and  _485
REMARK  224  A    between atoms: _484  and  _487
REMARK  225  A    between atoms: _487  and  _488
REMARK  226  A    between atoms: _488  and  _489
REMARK  227  A    between atoms: _489  and  _490
REMARK  228  A    between atoms: _492  and  _493
REMARK  229  A    between atoms: _493  and  _494
REMARK  230  A    between atoms: _493  and  _496
REMARK  231  A    between atoms: _496  and  _497
REMARK  232  A    between atoms: _497  and  _498
REMARK  233  A    between atoms: _501  and  _502
REMARK  234  A    between atoms: _502  and  _503
REMARK  235  A    between atoms: _502  and  _505
REMARK  236  A    between atoms: _505  and  _506
REMARK  237  A    between atoms: _509  and  _510
REMARK  238  A    between atoms: _510  and  _511
REMARK  239  A    between atoms: _510  and  _513
REMARK  240  A    between atoms: _513  and  _514
REMARK  241  A    between atoms: _519  and  _520
REMARK  242  A    between atoms: _520  and  _521
REMARK  243  A    between atoms: _520  and  _523
REMARK  244  A    between atoms: _523  and  _524
REMARK  245  A    between atoms: _527  and  _528
REMARK  246  A    between atoms: _528  and  _529
REMARK  247  A    between atoms: _528  and  _531
REMARK  248  A    between atoms: _531  and  _532
REMARK  249  A    between atoms: _535  and  _536
REMARK  250  A    between atoms: _536  and  _537
REMARK  251  A    between atoms: _536  and  _539
REMARK  252  A    between atoms: _539  and  _540
REMARK  253  A    between atoms: _543  and  _544
REMARK  254  A    between atoms: _544  and  _545
REMARK  255  A    between atoms: _544  and  _547
REMARK  256  A    between atoms: _547  and  _548
REMARK  257  A    between atoms: _552  and  _553
REMARK  258  A    between atoms: _558  and  _559
REMARK  259  A    between atoms: _559  and  _560
REMARK  260  A    between atoms: _559  and  _562
REMARK  261  A    between atoms: _562  and  _563
REMARK  262  A    between atoms: _566  and  _567
REMARK  263  A    between atoms: _567  and  _568
REMARK  264  A    between atoms: _567  and  _570
REMARK  265  A    between atoms: _570  and  _571
REMARK  266  A    between atoms: _571  and  _572
REMARK  267  A    between atoms: _572  and  _573
REMARK  268  A    between atoms: _575  and  _576
REMARK  269  A    between atoms: _576  and  _577
REMARK  270  A    between atoms: _576  and  _579
REMARK  271  A    between atoms: _579  and  _580
REMARK  272  A    between atoms: _580  and  _581
REMARK  273  A    between atoms: _584  and  _585
REMARK  274  A    between atoms: _585  and  _586
REMARK  275  A    between atoms: _585  and  _588
REMARK  276  A    between atoms: _588  and  _589
REMARK  277  A    between atoms: _592  and  _593
REMARK  278  A    between atoms: _593  and  _594
REMARK  279  A    between atoms: _593  and  _596
REMARK  280  A    between atoms: _596  and  _597
REMARK  281  A    between atoms: _597  and  _598
REMARK  282  A    between atoms: _598  and  _599
REMARK  283  A    between atoms: _603  and  _604
REMARK  284  A    between atoms: _604  and  _605
REMARK  285  A    between atoms: _604  and  _607
REMARK  286  A    between atoms: _610  and  _611
REMARK  287  A    between atoms: _611  and  _612
REMARK  288  A    between atoms: _611  and  _614
REMARK  289  A    between atoms: _614  and  _615
REMARK  290  A    between atoms: _618  and  _619
REMARK  291  A    between atoms: _619  and  _620
REMARK  292  A    between atoms: _619  and  _622
REMARK  293  A    between atoms: _625  and  _626
REMARK  294  A    between atoms: _626  and  _627
REMARK  295  A    between atoms: _626  and  _629
REMARK  296  A    between atoms: _629  and  _630
REMARK  297  A    between atoms: _633  and  _634
REMARK  298  A    between atoms: _634  and  _635
REMARK  299  A    between atoms: _634  and  _637
REMARK  300  A    between atoms: _640  and  _641
REMARK  301  A    between atoms: _641  and  _642
REMARK  302  A    between atoms: _641  and  _644
REMARK  303  A    between atoms: _644  and  _645
REMARK  304  A    between atoms: _648  and  _649
REMARK  305  A    between atoms: _649  and  _650
REMARK  306  A    between atoms: _649  and  _652
REMARK  307  A    between atoms: _655  and  _656
REMARK  308  A    between atoms: _656  and  _657
REMARK  309  A    between atoms: _659  and  _660
REMARK  310  A    between atoms: _660  and  _661
REMARK  311  A    between atoms: _660  and  _663
REMARK  312  A    between atoms: _663  and  _664
REMARK  313  A    between atoms: _667  and  _668
REMARK  314  A    between atoms: _668  and  _669
REMARK  315  A    between atoms: _671  and  _672
REMARK  316  A    between atoms: _672  and  _673
REMARK  317  A    between atoms: _672  and  _675
REMARK  318  A    between atoms: _675  and  _676
REMARK  319  A    between atoms: _676  and  _677
REMARK  320  A    between atoms: _679  and  _680
REMARK  321  A    between atoms: _680  and  _681
REMARK  322  A    between atoms: _680  and  _683
REMARK  323  A    between atoms: _686  and  _687
REMARK  324  A    between atoms: _687  and  _688
REMARK  325  A    between atoms: _687  and  _690
REMARK  326  A    between atoms: _690  and  _691
REMARK  327  A    between atoms: _691  and  _692
REMARK  328  A    between atoms: _692  and  _693
REMARK  329  A    between atoms: _695  and  _696
REMARK  330  A    between atoms: _696  and  _697
REMARK  331  A    between atoms: _700  and  _701
REMARK  332  A    between atoms: _701  and  _702
REMARK  333  A    between atoms: _701  and  _704
REMARK  334  A    between atoms: _704  and  _705
REMARK  335  A    between atoms: _708  and  _709
REMARK  336  A    between atoms: _709  and  _710
REMARK  337  A    between atoms: _709  and  _712
REMARK  338  A    between atoms: _712  and  _713
REMARK  339  A    between atoms: _716  and  _717
REMARK  340  A    between atoms: _717  and  _720
REMARK  341  A    between atoms: _720  and  _721
REMARK  342  A    between atoms: _733  and  _734
REMARK  343  A    between atoms: _733  and  _735
REMARK  344  A    between atoms: _741  and  _744
REMARK  345  A    between atoms: _744  and  _745
REMARK  346  A    between atoms: _758  and  _759
REMARK  347  A    between atoms: _758  and  _761
REMARK  348  A    between atoms: _759  and  _760
REMARK  349  A    between atoms: _765  and  _766
REMARK  350  A    between atoms: _768  and  _769
REMARK  351  A    between atoms: _769  and  _770
REMARK  352  A    between atoms: _769  and  _772
REMARK  353  A    between atoms: _775  and  _776
REMARK  354  A    between atoms: _776  and  _777
REMARK  355  A    between atoms: _776  and  _779
REMARK  356  A    between atoms: _779  and  _780
REMARK  357  A    between atoms: _783  and  _784
REMARK  358  A    between atoms: _784  and  _785
REMARK  359  A    between atoms: _788  and  _789
REMARK  360  A    between atoms: _789  and  _790
REMARK  361  A    between atoms: _789  and  _792
REMARK  362  A    between atoms: _792  and  _793
REMARK  363  A    between atoms: _793  and  _794
REMARK  364  A    between atoms: _794  and  _795
REMARK  365  A    between atoms: _797  and  _798
REMARK  366  A    between atoms: _798  and  _799
REMARK  367  A    between atoms: _798  and  _801
REMARK  368  A    between atoms: _803  and  _804
REMARK  369  A    between atoms: _804  and  _805
REMARK  370  A    between atoms: _807  and  _808
REMARK  371  A    between atoms: _808  and  _809
REMARK  372  A    between atoms: _808  and  _811
REMARK  373  A    between atoms: _814  and  _815
REMARK  374  A    between atoms: _815  and  _816
REMARK  375  A    between atoms: _815  and  _818
REMARK  376  A    between atoms: _818  and  _819
REMARK  377  A    between atoms: _819  and  _820
REMARK  378  A    between atoms: _820  and  _821
REMARK  379  A    between atoms: _823  and  _824
REMARK  380  A    between atoms: _824  and  _825
REMARK  381  A    between atoms: _828  and  _829
REMARK  382  A    between atoms: _829  and  _830
REMARK  383  A    between atoms: _829  and  _832
REMARK  384  A    between atoms: _832  and  _833
REMARK  385  A    between atoms: _839  and  _840
REMARK  386  A    between atoms: _840  and  _841
REMARK  387  A    between atoms: _840  and  _843
REMARK  388  A    between atoms: _843  and  _844
REMARK  389  A    between atoms: _844  and  _845
REMARK  390  A    between atoms: _847  and  _848
REMARK  391  A    between atoms: _848  and  _849
REMARK  392  A    between atoms: _848  and  _851
REMARK  393  A    between atoms: _851  and  _852
REMARK  394  A    between atoms: _852  and  _853
REMARK  395  A    between atoms: _856  and  _857
REMARK  396  A    between atoms: _857  and  _858
REMARK  397  A    between atoms: _861  and  _862
REMARK  398  A    between atoms: _862  and  _863
REMARK  399  A    between atoms: _862  and  _865
REMARK  400  A    between atoms: _865  and  _866
REMARK  401  A    between atoms: _869  and  _870
REMARK  402  A    between atoms: _870  and  _871
REMARK  403  A    between atoms: _870  and  _873
REMARK  404  A    between atoms: _873  and  _874
REMARK  405  A    between atoms: _874  and  _875
REMARK  406  A    between atoms: _878  and  _879
REMARK  407  A    between atoms: _879  and  _880
REMARK  408  A    between atoms: _883  and  _884
REMARK  409  A    between atoms: _884  and  _885
REMARK  410  A    between atoms: _887  and  _888
REMARK  411  A    between atoms: _888  and  _889
REMARK  412  A    between atoms: _892  and  _893
REMARK  413  A    between atoms: _893  and  _894
REMARK  414  A    between atoms: _893  and  _896
REMARK  415  A    between atoms: _896  and  _897
REMARK  416  A    between atoms: _900  and  _901
REMARK  417  A    between atoms: _901  and  _902
REMARK  418  A    between atoms: _901  and  _904
REMARK  419  A    between atoms: _904  and  _905
REMARK  420  A    between atoms: _908  and  _909
REMARK  421  A    between atoms: _909  and  _910
REMARK  422  A    between atoms: _909  and  _912
REMARK  423  A    between atoms: _914  and  _915
REMARK  424  A    between atoms: _915  and  _916
REMARK  425  A    between atoms: _915  and  _918
REMARK  426  A    between atoms: _918  and  _919
REMARK  427  A    between atoms: _919  and  _920
REMARK  428  A    between atoms: _922  and  _923
REMARK  429  A    between atoms: _923  and  _924
REMARK  430  A    between atoms: _923  and  _926
REMARK  431  A    between atoms: _926  and  _927
REMARK  432  A    between atoms: _930  and  _931
REMARK  433  A    between atoms: _931  and  _932
REMARK  434  A    between atoms: _934  and  _935
REMARK  435  A    between atoms: _935  and  _936
REMARK  436  A    between atoms: _935  and  _938
REMARK  437  A    between atoms: _938  and  _939
REMARK  438  A    between atoms: _939  and  _940
REMARK  439  A    between atoms: _943  and  _944
REMARK  440  A    between atoms: _944  and  _945
REMARK  441  A    between atoms: _944  and  _947
REMARK  442  A    between atoms: _947  and  _948
REMARK  443  A    between atoms: _954  and  _955
REMARK  444  A    between atoms: _955  and  _956
REMARK  445  A    between atoms: _958  and  _959
REMARK  446  A    between atoms: _959  and  _960
REMARK  447  A    between atoms: _959  and  _962
REMARK  448  A    between atoms: _965  and  _966
REMARK  449  A    between atoms: _966  and  _967
REMARK  450  A    between atoms: _969  and  _970
REMARK  451  A    between atoms: _970  and  _971
REMARK  452  A    between atoms: _970  and  _973
REMARK  453  A    between atoms: _973  and  _974
REMARK  454  A    between atoms: _980  and  _981
REMARK  455  A    between atoms: _981  and  _982
REMARK  456  A    between atoms: _981  and  _984
REMARK  457  A    between atoms: _984  and  _985
REMARK  458  A    between atoms: _992  and  _993
REMARK  459  A    between atoms: _993  and  _994
REMARK  460  A    between atoms: _993  and  _996
REMARK  461  A    between atoms: _998  and  _999
REMARK  462  A    between atoms: _999  and  _1000
REMARK  463  A    between atoms: _1003  and  _1004
REMARK  464  A    between atoms: _1004  and  _1005
REMARK  465  A    between atoms: _1004  and  _1007
REMARK  466  A    between atoms: _1007  and  _1008
REMARK  467  A    between atoms: _1015  and  _1016
REMARK  468  A    between atoms: _1016  and  _1017
REMARK  469  A    between atoms: _1016  and  _1019
REMARK  470  A    between atoms: _1019  and  _1020
REMARK  471  A    between atoms: _1023  and  _1024
REMARK  472  A    between atoms: _1024  and  _1025
REMARK  473  A    between atoms: _1024  and  _1027
REMARK  474  A    between atoms: _1030  and  _1031
REMARK  475  A    between atoms: _1031  and  _1032
REMARK  476  A    between atoms: _1035  and  _1036
REMARK  477  A    between atoms: _1036  and  _1037
REMARK  478  A    between atoms: _1036  and  _1039
REMARK  479  A    between atoms: _1039  and  _1040
REMARK  480  A    between atoms: _1040  and  _1041
REMARK  481  A    between atoms: _1044  and  _1045
REMARK  482  A    between atoms: _1045  and  _1046
REMARK  483  A    between atoms: _1045  and  _1048
REMARK  484  A    between atoms: _1048  and  _1049
REMARK  485  A    between atoms: _1049  and  _1050
REMARK  486  A    between atoms: _1050  and  _1051
REMARK  487  A    between atoms: _1053  and  _1054
REMARK  488  A    between atoms: _1054  and  _1055
REMARK  489  A    between atoms: _1054  and  _1057
REMARK  490  A    between atoms: _1060  and  _1061
REMARK  491  A    between atoms: _1061  and  _1062
REMARK  492  A    between atoms: _1061  and  _1064
REMARK  493  A    between atoms: _1067  and  _1068
REMARK  494  A    between atoms: _1068  and  _1069
REMARK  495  A    between atoms: _1068  and  _1071
REMARK  496  A    between atoms: _1074  and  _1075
REMARK  497  A    between atoms: _1075  and  _1076
REMARK  498  A    between atoms: _1075  and  _1078
REMARK  499  A    between atoms: _1078  and  _1079
REMARK  500  A    between atoms: _1082  and  _1083
REMARK  501  A    between atoms: _1083  and  _1084
REMARK  502  A    between atoms: _1083  and  _1086
REMARK  503  A    between atoms: _1089  and  _1090
REMARK  504  A    between atoms: _1090  and  _1091
REMARK  505  A    between atoms: _1090  and  _1093
REMARK  506  A    between atoms: _1093  and  _1094
REMARK  507  A    between atoms: _1094  and  _1095
REMARK  508  A    between atoms: _1095  and  _1096
REMARK  509  A    between atoms: _1098  and  _1099
REMARK  510  A    between atoms: _1099  and  _1100
REMARK  511  A    between atoms: _1099  and  _1102
REMARK  512  A    between atoms: _1102  and  _1103
REMARK  513  A    between atoms: _1108  and  _1109
REMARK  514  A    between atoms: _1109  and  _1110
REMARK  515  A    between atoms: _1109  and  _1112
REMARK  516  A    between atoms: _1112  and  _1113
REMARK  517  A    between atoms: _1116  and  _1117
REMARK  518  A    between atoms: _1117  and  _1118
REMARK  519  A    between atoms: _1117  and  _1120
REMARK  520  A    between atoms: _1120  and  _1121
REMARK  521  A    between atoms: _1124  and  _1125
REMARK  522  A    between atoms: _1125  and  _1126
REMARK  523  A    between atoms: _1125  and  _1128
REMARK  524  A    between atoms: _1128  and  _1129
REMARK  525  A    between atoms: _1132  and  _1133
REMARK  526  A    between atoms: _1133  and  _1134
REMARK  527  A    between atoms: _1133  and  _1136
REMARK  528  A    between atoms: _1136  and  _1137
REMARK  529  A    between atoms: _1137  and  _1138
REMARK  530  A    between atoms: _1141  and  _1142
REMARK  531  A    between atoms: _1142  and  _1143
REMARK  532  A    between atoms: _1142  and  _1145
REMARK  533  A    between atoms: _1145  and  _1146
REMARK  534  A    between atoms: _1146  and  _1147
REMARK  535  A    between atoms: _1150  and  _1151
REMARK  536  A    between atoms: _1151  and  _1152
REMARK  537  A    between atoms: _1151  and  _1154
REMARK  538  A    between atoms: _1154  and  _1155
REMARK  539  A    between atoms: _1162  and  _1163
REMARK  540  A    between atoms: _1163  and  _1164
REMARK  541  A    between atoms: _1167  and  _1168
REMARK  542  A    between atoms: _1168  and  _1169
REMARK  543  A    between atoms: _1168  and  _1171
REMARK  544  A    between atoms: _1171  and  _1172
REMARK  545  A    between atoms: _1181  and  _1182
REMARK  546  A    between atoms: _1182  and  _1183
REMARK  547  A    between atoms: _1182  and  _1185
REMARK  548  A    between atoms: _1185  and  _1186
REMARK  549  A    between atoms: _1186  and  _1187
REMARK  550  A    between atoms: _1190  and  _1191
REMARK  551  A    between atoms: _1191  and  _1192
REMARK  552  A    between atoms: _1191  and  _1194
REMARK  553  A    between atoms: _1196  and  _1197
REMARK  554  A    between atoms: _1197  and  _1198
REMARK  555  A    between atoms: _1197  and  _1200
REMARK  556  A    between atoms: _1202  and  _1203
REMARK  557  A    between atoms: _1203  and  _1204
REMARK  558  A    between atoms: _1207  and  _1208
REMARK  559  A    between atoms: _1208  and  _1209
REMARK  560  A    between atoms: _1211  and  _1212
REMARK  561  A    between atoms: _1212  and  _1213
REMARK  562  A    between atoms: _1215  and  _1216
REMARK  563  A    between atoms: _1216  and  _1217
REMARK  564  A    between atoms: _1216  and  _1219
REMARK  565  A    between atoms: _1221  and  _1222
REMARK  566  A    between atoms: _1222  and  _1223
REMARK  567  A    between atoms: _1222  and  _1225
REMARK  568  A    between atoms: _1225  and  _1226
REMARK  569  A    between atoms: _1232  and  _1233
REMARK  570  A    between atoms: _1233  and  _1234
REMARK  571  A    between atoms: _1233  and  _1236
REMARK  572  A    between atoms: _1239  and  _1240
REMARK  573  A    between atoms: _1240  and  _1241
REMARK  574  A    between atoms: _1240  and  _1243
REMARK  575  A    between atoms: _1247  and  _1249
REMARK  576  A    between atoms: _1247  and  _1252
REMARK  577  A    between atoms: _1251  and  _1252
REMARK  578  A    between atoms: _1251  and  _1254
REMARK  579  A    between atoms: _1253  and  _1254
REMARK  580  A    between atoms: _1253  and  _1256
REMARK  581  A    between atoms: _1254  and  _1255
REMARK  582  A    between atoms: _1255  and  _1257
REMARK  583  A    between atoms: _1256  and  _1258
REMARK  584  A    between atoms: _1265  and  _1266
REMARK  585  A    between atoms: _1266  and  _1267
REMARK  586  A    between atoms: _1266  and  _1269
REMARK  587  A    between atoms: _1272  and  _1273
REMARK  588  A    between atoms: _1273  and  _1274
REMARK  589  A    between atoms: _1273  and  _1276
REMARK  590  A    between atoms: _1276  and  _1277
REMARK  591  A    between atoms: _1280  and  _1281
REMARK  592  A    between atoms: _1281  and  _1282
REMARK  593  A    between atoms: _1281  and  _1284
REMARK  594  A    between atoms: _1287  and  _1288
REMARK  595  A    between atoms: _1288  and  _1289
REMARK  596  A    between atoms: _1291  and  _1292
REMARK  597  A    between atoms: _1292  and  _1293
REMARK  598  A    between atoms: _1292  and  _1295
REMARK  599  A    between atoms: _1295  and  _1296
REMARK  600  A    between atoms: _1296  and  _1297
REMARK  601  A    between atoms: _1301  and  _1302
REMARK  602  A    between atoms: _1307  and  _1308
REMARK  603  A    between atoms: _1308  and  _1309
REMARK  604  A    between atoms: _1308  and  _1311
REMARK  605  A    between atoms: _1311  and  _1312
REMARK  606  A    between atoms: _1312  and  _1313
REMARK  607  A    between atoms: _1315  and  _1316
REMARK  608  A    between atoms: _1316  and  _1317
REMARK  609  A    between atoms: _1319  and  _1320
REMARK  610  A    between atoms: _1320  and  _1321
REMARK  611  A    between atoms: _1320  and  _1323
REMARK  612  A    between atoms: _1323  and  _1324
REMARK  613  A    between atoms: _1324  and  _1325
REMARK  614  A    between atoms: _1325  and  _1326
REMARK  615  A    between atoms: _1330  and  _1331
REMARK  616  A    between atoms: _1331  and  _1332
REMARK  617  A    between atoms: _1334  and  _1335
REMARK  618  A    between atoms: _1335  and  _1336
REMARK  619  A    between atoms: _1335  and  _1338
REMARK  620  A    between atoms: _1341  and  _1342
REMARK  621  A    between atoms: _1342  and  _1343
REMARK  622  A    between atoms: _1342  and  _1345
REMARK  623  A    between atoms: _1345  and  _1346
REMARK  624  A    between atoms: _1346  and  _1347
REMARK  625  A    between atoms: _1347  and  _1348
REMARK  626  A    between atoms: _1350  and  _1351
REMARK  627  A    between atoms: _1351  and  _1352
REMARK  628  A    between atoms: _1351  and  _1354
REMARK  629  A    between atoms: _1357  and  _1358
REMARK  630  A    between atoms: _1358  and  _1359
REMARK  631  A    between atoms: _1358  and  _1361
REMARK  632  A    between atoms: _1361  and  _1362
REMARK  633  A    between atoms: _1365  and  _1366
REMARK  634  A    between atoms: _1366  and  _1367
REMARK  635  A    between atoms: _1366  and  _1369
REMARK  636  A    between atoms: _1369  and  _1370
REMARK  637  A    between atoms: _1373  and  _1374
REMARK  638  A    between atoms: _1374  and  _1375
REMARK  639  A    between atoms: _1374  and  _1377
REMARK  640  A    between atoms: _1377  and  _1378
REMARK  641  A    between atoms: _1383  and  _1384
REMARK  642  A    between atoms: _1384  and  _1385
REMARK  643  A    between atoms: _1384  and  _1387
REMARK  644  A    between atoms: _1387  and  _1388
REMARK  645  A    between atoms: _1391  and  _1392
REMARK  646  A    between atoms: _1392  and  _1393
REMARK  647  A    between atoms: _1392  and  _1395
REMARK  648  A    between atoms: _1395  and  _1396
REMARK  649  A    between atoms: _1396  and  _1397
REMARK  650  A    between atoms: _1397  and  _1398
REMARK  651  A    between atoms: _1400  and  _1401
REMARK  652  A    between atoms: _1401  and  _1402
REMARK  653  A    between atoms: _1401  and  _1404
REMARK  654  A    between atoms: _1404  and  _1405
REMARK  655  A    between atoms: _1405  and  _1406
REMARK  656  A    between atoms: _1409  and  _1410
REMARK  657  A    between atoms: _1410  and  _1411
REMARK  658  A    between atoms: _1410  and  _1413
REMARK  659  A    between atoms: _1413  and  _1414
REMARK  660  A    between atoms: _1417  and  _1418
REMARK  661  A    between atoms: _1418  and  _1419
REMARK  662  A    between atoms: _1418  and  _1421
REMARK  663  A    between atoms: _1421  and  _1422
REMARK  664  A    between atoms: _1422  and  _1423
REMARK  665  A    between atoms: _1426  and  _1427
REMARK  666  A    between atoms: _1427  and  _1428
REMARK  667  A    between atoms: _1427  and  _1430
REMARK  668  A    between atoms: _1433  and  _1434
REMARK  669  A    between atoms: _1434  and  _1435
REMARK  670  A    between atoms: _1434  and  _1437
REMARK  671  A    between atoms: _1437  and  _1438
REMARK  672  A    between atoms: _1438  and  _1439
REMARK  673  A    between atoms: _1442  and  _1443
REMARK  674  A    between atoms: _1443  and  _1444
REMARK  675  A    between atoms: _1443  and  _1446
REMARK  676  A    between atoms: _1446  and  _1447
REMARK  677  A    between atoms: _1454  and  _1455
REMARK  678  A    between atoms: _1455  and  _1456
REMARK  679  A    between atoms: _1455  and  _1458
REMARK  680  A    between atoms: _1458  and  _1459
REMARK  681  A    between atoms: _1462  and  _1463
REMARK  682  A    between atoms: _1463  and  _1464
REMARK  683  A    between atoms: _1463  and  _1466
REMARK  684  A    between atoms: _1466  and  _1467
REMARK  685  A    between atoms: _1467  and  _1468
REMARK  686  A    between atoms: _1471  and  _1472
REMARK  687  A    between atoms: _1472  and  _1473
REMARK  688  A    between atoms: _1472  and  _1475
REMARK  689  A    between atoms: _1475  and  _1476
REMARK  690  A    between atoms: _1476  and  _1477
REMARK  691  A    between atoms: _1480  and  _1481
REMARK  692  A    between atoms: _1481  and  _1482
REMARK  693  A    between atoms: _1481  and  _1484
REMARK  694  A    between atoms: _1484  and  _1485
REMARK  695  A    between atoms: _1485  and  _1486
REMARK  696  A    between atoms: _1486  and  _1487
REMARK  697  A    between atoms: _1491  and  _1492
REMARK  698  A    between atoms: _1492  and  _1493
REMARK  699  A    between atoms: _1492  and  _1495
REMARK  700  A    between atoms: _1495  and  _1496
REMARK  701  A    between atoms: _1496  and  _1497
REMARK  702  A    between atoms: _1497  and  _1498
REMARK  703  A    between atoms: _1502  and  _1503
REMARK  704  A    between atoms: _1503  and  _1504
REMARK  705  A    between atoms: _1503  and  _1506
REMARK  706  A    between atoms: _1506  and  _1507
REMARK  707  A    between atoms: _1510  and  _1511
REMARK  708  A    between atoms: _1511  and  _1512
REMARK  709  A    between atoms: _1511  and  _1514
REMARK  710  A    between atoms: _1514  and  _1515
REMARK  711  A    between atoms: _1515  and  _1516
REMARK  712  A    between atoms: _1516  and  _1517
REMARK  713  A    between atoms: _1519  and  _1520
REMARK  714  A    between atoms: _1520  and  _1521
REMARK  715  A    between atoms: _1520  and  _1523
REMARK  716  A    between atoms: _1523  and  _1524
REMARK  717  A    between atoms: _1524  and  _1525
REMARK  718  A    between atoms: _1528  and  _1529
REMARK  719  A    between atoms: _1529  and  _1530
REMARK  720  A    between atoms: _1529  and  _1532
REMARK  721  A    between atoms: _1532  and  _1533
REMARK  722  A    between atoms: _1536  and  _1537
REMARK  723  A    between atoms: _1537  and  _1538
REMARK  724  A    between atoms: _1537  and  _1540
REMARK  725  A    between atoms: _1543  and  _1544
REMARK  726  A    between atoms: _1544  and  _1545
REMARK  727  A    between atoms: _1544  and  _1547
REMARK  728  A    between atoms: _1547  and  _1548
REMARK  729  A    between atoms: _1548  and  _1549
REMARK  730  A    between atoms: _1549  and  _1550
REMARK  731  A    between atoms: _1552  and  _1553
REMARK  732  A    between atoms: _1553  and  _1554
REMARK  733  A    between atoms: _1553  and  _1556
REMARK  734  A    between atoms: _1556  and  _1557
REMARK  735  A    between atoms: _1557  and  _1558
REMARK  736  A    between atoms: _1558  and  _1559
REMARK  737  A    between atoms: _1561  and  _1562
REMARK  738  A    between atoms: _1562  and  _1563
REMARK  739  A    between atoms: _1562  and  _1565
REMARK  740  A    between atoms: _1565  and  _1566
REMARK  741  A    between atoms: _1571  and  _1572
REMARK  742  A    between atoms: _1572  and  _1573
REMARK  743  A    between atoms: _1572  and  _1575
REMARK  744  A    between atoms: _1577  and  _1578
REMARK  745  A    between atoms: _1578  and  _1579
REMARK  746  A    between atoms: _1578  and  _1581
REMARK  747  A    between atoms: _1581  and  _1582
REMARK  748  A    between atoms: _1582  and  _1583
REMARK  749  A    between atoms: _1586  and  _1587
REMARK  750  A    between atoms: _1587  and  _1588
REMARK  751  A    between atoms: _1587  and  _1590
REMARK  752  A    between atoms: _1590  and  _1591
REMARK  753  A    between atoms: _1597  and  _1598
REMARK  754  A    between atoms: _1598  and  _1599
REMARK  755  A    between atoms: _1598  and  _1601
REMARK  756  A    between atoms: _1601  and  _1602
REMARK  757  A    between atoms: _1605  and  _1606
REMARK  758  A    between atoms: _1606  and  _1607
REMARK  759  A    between atoms: _1609  and  _1610
REMARK  760  A    between atoms: _1610  and  _1611
REMARK  761  A    between atoms: _1610  and  _1613
REMARK  762  A    between atoms: _1613  and  _1614
REMARK  763  A    between atoms: _1622  and  _1623
REMARK  764  A    between atoms: _1628  and  _1629
REMARK  765  A    between atoms: _1629  and  _1630
REMARK  766  A    between atoms: _1629  and  _1632
REMARK  767  A    between atoms: _1632  and  _1633
REMARK  768  A    between atoms: _1636  and  _1637
REMARK  769  A    between atoms: _1637  and  _1638
REMARK  770  A    between atoms: _1637  and  _1640
REMARK  771  A    between atoms: _1643  and  _1644
REMARK  772  A    between atoms: _1644  and  _1645
REMARK  773  A    between atoms: _1644  and  _1647
REMARK  774  A    between atoms: _1647  and  _1648
REMARK  775  A    between atoms: _1651  and  _1652
REMARK  776  A    between atoms: _1652  and  _1653
REMARK  777  A    between atoms: _1652  and  _1655
REMARK  778  A    between atoms: _1655  and  _1656
REMARK  779  A    between atoms: _1662  and  _1663
REMARK  780  A    between atoms: _1663  and  _1664
REMARK  781  A    between atoms: _1663  and  _1666
REMARK  782  A    between atoms: _1669  and  _1670
REMARK  783  A    between atoms: _1670  and  _1671
REMARK  784  A    between atoms: _1670  and  _1673
REMARK  785  A    between atoms: _1673  and  _1674
REMARK  786  A    between atoms: _1674  and  _1675
REMARK                            x       y       z     vdW  Elec       q    Type
REMARK                         _______ _______ _______ _____ _____    ______ ____
ROOT
ATOM      1  O   HOH     1      -3.694   5.951  19.130  0.00  0.00    +0.000 OA
ENDROOT
TORSDOF 0
REMARK  Name = /Users/mlugowska/PhD/ML_residence_time_prediction/protein_files/5J64_protein.pdb
REMARK  786 active torsions:
REMARK  status: ('A' for Active; 'I' for Inactive)
REMARK    1  A    between atoms: _2  and  _3
REMARK    2  A    between atoms: _2  and  _5
REMARK    3  A    between atoms: _5  and  _6
REMARK    4  A    between atoms: _6  and  _7
REMARK    5  A    between atoms: _10  and  _11
REMARK    6  A    between atoms: _11  and  _12
REMARK    7  A    between atoms: _11  and  _14
REMARK    8  A    between atoms: _17  and  _18
REMARK    9  A    between atoms: _18  and  _19
REMARK   10  A    between atoms: _18  and  _21
REMARK   11  A    between atoms: _21  and  _22
REMARK   12  A    between atoms: _22  and  _23
REMARK   13  A    between atoms: _26  and  _27
REMARK   14  A    between atoms: _27  and  _28
REMARK   15  A    between atoms: _27  and  _30
REMARK   16  A    between atoms: _33  and  _34
REMARK   17  A    between atoms: _34  and  _35
REMARK   18  A    between atoms: _34  and  _37
REMARK   19  A    between atoms: _37  and  _38
REMARK   20  A    between atoms: _44  and  _45
REMARK   21  A    between atoms: _45  and  _46
REMARK   22  A    between atoms: _49  and  _50
REMARK   23  A    between atoms: _50  and  _51
REMARK   24  A    between atoms: _50  and  _53
REMARK   25  A    between atoms: _53  and  _54
REMARK   26  A    between atoms: _60  and  _61
REMARK   27  A    between atoms: _61  and  _62
REMARK   28  A    between atoms: _61  and  _64
REMARK   29  A    between atoms: _64  and  _65
REMARK   30  A    between atoms: _65  and  _66
REMARK   31  A    between atoms: _69  and  _70
REMARK   32  A    between atoms: _70  and  _71
REMARK   33  A    between atoms: _74  and  _75
REMARK   34  A    between atoms: _75  and  _76
REMARK   35  A    between atoms: _75  and  _78
REMARK   36  A    between atoms: _78  and  _79
REMARK   37  A    between atoms: _79  and  _80
REMARK   38  A    between atoms: _83  and  _84
REMARK   39  A    between atoms: _84  and  _85
REMARK   40  A    between atoms: _84  and  _87
REMARK   41  A    between atoms: _87  and  _88
REMARK   42  A    between atoms: _91  and  _92
REMARK   43  A    between atoms: _92  and  _93
REMARK   44  A    between atoms: _96  and  _97
REMARK   45  A    between atoms: _97  and  _98
REMARK   46  A    between atoms: _97  and  _100
REMARK   47  A    between atoms: _100  and  _101
REMARK   48  A    between atoms: _101  and  _102
REMARK   49  A    between atoms: _105  and  _106
REMARK   50  A    between atoms: _106  and  _107
REMARK   51  A    between atoms: _106  and  _109
REMARK   52  A    between atoms: _109  and  _110
REMARK   53  A    between atoms: _113  and  _114
REMARK   54  A    between atoms: _114  and  _115
REMARK   55  A    between atoms: _114  and  _117
REMARK   56  A    between atoms: _117  and  _118
REMARK   57  A    between atoms: _118  and  _119
REMARK   58  A    between atoms: _121  and  _122
REMARK   59  A    between atoms: _122  and  _123
REMARK   60  A    between atoms: _122  and  _125
REMARK   61  A    between atoms: _127  and  _128
REMARK   62  A    between atoms: _128  and  _129
REMARK   63  A    between atoms: _128  and  _131
REMARK   64  A    between atoms: _131  and  _132
REMARK   65  A    between atoms: _135  and  _136
REMARK   66  A    between atoms: _136  and  _137
REMARK   67  A    between atoms: _136  and  _139
REMARK   68  A    between atoms: _139  and  _140
REMARK   69  A    between atoms: _143  and  _144
REMARK   70  A    between atoms: _144  and  _145
REMARK   71  A    between atoms: _144  and  _147
REMARK   72  A    between atoms: _147  and  _148
REMARK   73  A    between atoms: _151  and  _152
REMARK   74  A    between atoms: _152  and  _153
REMARK   75  A    between atoms: _152  and  _155
REMARK   76  A    between atoms: _155  and  _156
REMARK   77  A    between atoms: _159  and  _160
REMARK   78  A    between atoms: _160  and  _161
REMARK   79  A    between atoms: _160  and  _163
REMARK   80  A    between atoms: _166  and  _167
REMARK   81  A    between atoms: _167  and  _170
REMARK   82  A    between atoms: _170  and  _171
REMARK   83  A    between atoms: _181  and  _183
REMARK   84  A    between atoms: _183  and  _184
REMARK   85  A    between atoms: _189  and  _194
REMARK   86  A    between atoms: _192  and  _195
REMARK   87  A    between atoms: _193  and  _194
REMARK   88  A    between atoms: _195  and  _196
REMARK   89  A    between atoms: _201  and  _202
REMARK   90  A    between atoms: _202  and  _203
REMARK   91  A    between atoms: _202  and  _205
REMARK   92  A    between atoms: _207  and  _208
REMARK   93  A    between atoms: _208  and  _209
REMARK   94  A    between atoms: _208  and  _211
REMARK   95  A    between atoms: _211  and  _212
REMARK   96  A    between atoms: _215  and  _216
REMARK   97  A    between atoms: _216  and  _217
REMARK   98  A    between atoms: _216  and  _219
REMARK   99  A    between atoms: _219  and  _220
REMARK  100  A    between atoms: _220  and  _221
REMARK  101  A    between atoms: _221  and  _222
REMARK  102  A    between atoms: _224  and  _225
REMARK  103  A    between atoms: _225  and  _226
REMARK  104  A    between atoms: _225  and  _228
REMARK  105  A    between atoms: _228  and  _229
REMARK  106  A    between atoms: _229  and  _230
REMARK  107  A    between atoms: _233  and  _234
REMARK  108  A    between atoms: _234  and  _235
REMARK  109  A    between atoms: _234  and  _237
REMARK  110  A    between atoms: _237  and  _238
REMARK  111  A    between atoms: _241  and  _242
REMARK  112  A    between atoms: _242  and  _243
REMARK  113  A    between atoms: _242  and  _245
REMARK  114  A    between atoms: _245  and  _246
REMARK  115  A    between atoms: _252  and  _253
REMARK  116  A    between atoms: _253  and  _254
REMARK  117  A    between atoms: _253  and  _256
REMARK  118  A    between atoms: _256  and  _257
REMARK  119  A    between atoms: _260  and  _261
REMARK  120  A    between atoms: _261  and  _262
REMARK  121  A    between atoms: _261  and  _264
REMARK  122  A    between atoms: _264  and  _265
REMARK  123  A    between atoms: _265  and  _266
REMARK  124  A    between atoms: _266  and  _267
REMARK  125  A    between atoms: _271  and  _272
REMARK  126  A    between atoms: _272  and  _273
REMARK  127  A    between atoms: _272  and  _275
REMARK  128  A    between atoms: _275  and  _276
REMARK  129  A    between atoms: _276  and  _277
REMARK  130  A    between atoms: _280  and  _281
REMARK  131  A    between atoms: _281  and  _282
REMARK  132  A    between atoms: _281  and  _284
REMARK  133  A    between atoms: _284  and  _285
REMARK  134  A    between atoms: _288  and  _289
REMARK  135  A    between atoms: _289  and  _292
REMARK  136  A    between atoms: _292  and  _293
REMARK  137  A    between atoms: _309  and  _310
REMARK  138  A    between atoms: _309  and  _312
REMARK  139  A    between atoms: _312  and  _313
REMARK  140  A    between atoms: _316  and  _317
REMARK  141  A    between atoms: _317  and  _318
REMARK  142  A    between atoms: _317  and  _320
REMARK  143  A    between atoms: _322  and  _323
REMARK  144  A    between atoms: _323  and  _324
REMARK  145  A    between atoms: _323  and  _326
REMARK  146  A    between atoms: _328  and  _329
REMARK  147  A    between atoms: _329  and  _330
REMARK  148  A    between atoms: _329  and  _332
REMARK  149  A    between atoms: _332  and  _333
REMARK  150  A    between atoms: _336  and  _337
REMARK  151  A    between atoms: _337  and  _338
REMARK  152  A    between atoms: _341  and  _342
REMARK  153  A    between atoms: _342  and  _343
REMARK  154  A    between atoms: _342  and  _345
REMARK  155  A    between atoms: _345  and  _346
REMARK  156  A    between atoms: _349  and  _350
REMARK  157  A    between atoms: _350  and  _351
REMARK  158  A    between atoms: _350  and  _353
REMARK  159  A    between atoms: _353  and  _354
REMARK  160  A    between atoms: _357  and  _358
REMARK  161  A    between atoms: _358  and  _359
REMARK  162  A    between atoms: _358  and  _361
REMARK  163  A    between atoms: _361  and  _362
REMARK  164  A    between atoms: _362  and  _363
REMARK  165  A    between atoms: _363  and  _364
REMARK  166  A    between atoms: _366  and  _367
REMARK  167  A    between atoms: _367  and  _368
REMARK  168  A    between atoms: _367  and  _370
REMARK  169  A    between atoms: _370  and  _371
REMARK  170  A    between atoms: _374  and  _375
REMARK  171  A    between atoms: _375  and  _376
REMARK  172  A    between atoms: _375  and  _378
REMARK  173  A    between atoms: _378  and  _379
REMARK  174  A    between atoms: _379  and  _380
REMARK  175  A    between atoms: _380  and  _381
REMARK  176  A    between atoms: _385  and  _386
REMARK  177  A    between atoms: _386  and  _387
REMARK  178  A    between atoms: _386  and  _389
REMARK  179  A    between atoms: _389  and  _390
REMARK  180  A    between atoms: _397  and  _398
REMARK  181  A    between atoms: _398  and  _399
REMARK  182  A    between atoms: _398  and  _401
REMARK  183  A    between atoms: _401  and  _402
REMARK  184  A    between atoms: _402  and  _403
REMARK  185  A    between atoms: _406  and  _407
REMARK  186  A    between atoms: _407  and  _408
REMARK  187  A    between atoms: _407  and  _410
REMARK  188  A    between atoms: _412  and  _413
REMARK  189  A    between atoms: _413  and  _414
REMARK  190  A    between atoms: _413  and  _416
REMARK  191  A    between atoms: _416  and  _417
REMARK  192  A    between atoms: _420  and  _421
REMARK  193  A    between atoms: _421  and  _422
REMARK  194  A    between atoms: _421  and  _424
REMARK  195  A    between atoms: _427  and  _428
REMARK  196  A    between atoms: _428  and  _429
REMARK  197  A    between atoms: _428  and  _431
REMARK  198  A    between atoms: _431  and  _432
REMARK  199  A    between atoms: _436  and  _437
REMARK  200  A    between atoms: _442  and  _443
REMARK  201  A    between atoms: _443  and  _444
REMARK  202  A    between atoms: _443  and  _446
REMARK  203  A    between atoms: _448  and  _449
REMARK  204  A    between atoms: _449  and  _450
REMARK  205  A    between atoms: _449  and  _452
REMARK  206  A    between atoms: _452  and  _453
REMARK  207  A    between atoms: _453  and  _454
REMARK  208  A    between atoms: _454  and  _455
REMARK  209  A    between atoms: _457  and  _458
REMARK  210  A    between atoms: _458  and  _459
REMARK  211  A    between atoms: _458  and  _461
REMARK  212  A    between atoms: _461  and  _462
REMARK  213  A    between atoms: _465  and  _466
REMARK  214  A    between atoms: _466  and  _467
REMARK  215  A    between atoms: _466  and  _469
REMARK  216  A    between atoms: _469  and  _470
REMARK  217  A    between atoms: _473  and  _474
REMARK  218  A    between atoms: _474  and  _475
REMARK  219  A    between atoms: _474  and  _477
REMARK  220  A    between atoms: _479  and  _480
REMARK  221  A    between atoms: _480  and  _481
REMARK  222  A    between atoms: _483  and  _484
REMARK  223  A    between atoms: _484  and  _485
REMARK  224  A    between atoms: _484  and  _487
REMARK  225  A    between atoms: _487  and  _488
REMARK  226  A    between atoms: _488  and  _489
REMARK  227  A    between atoms: _489  and  _490
REMARK  228  A    between atoms: _492  and  _493
REMARK  229  A    between atoms: _493  and  _494
REMARK  230  A    between atoms: _493  and  _496
REMARK  231  A    between atoms: _496  and  _497
REMARK  232  A    between atoms: _497  and  _498
REMARK  233  A    between atoms: _501  and  _502
REMARK  234  A    between atoms: _502  and  _503
REMARK  235  A    between atoms: _502  and  _505
REMARK  236  A    between atoms: _505  and  _506
REMARK  237  A    between atoms: _509  and  _510
REMARK  238  A    between atoms: _510  and  _511
REMARK  239  A    between atoms: _510  and  _513
REMARK  240  A    between atoms: _513  and  _514
REMARK  241  A    between atoms: _519  and  _520
REMARK  242  A    between atoms: _520  and  _521
REMARK  243  A    between atoms: _520  and  _523
REMARK  244  A    between atoms: _523  and  _524
REMARK  245  A    between atoms: _527  and  _528
REMARK  246  A    between atoms: _528  and  _529
REMARK  247  A    between atoms: _528  and  _531
REMARK  248  A    between atoms: _531  and  _532
REMARK  249  A    between atoms: _535  and  _536
REMARK  250  A    between atoms: _536  and  _537
REMARK  251  A    between atoms: _536  and  _539
REMARK  252  A    between atoms: _539  and  _540
REMARK  253  A    between atoms: _543  and  _544
REMARK  254  A    between atoms: _544  and  _545
REMARK  255  A    between atoms: _544  and  _547
REMARK  256  A    between atoms: _547  and  _548
REMARK  257  A    between atoms: _552  and  _553
REMARK  258  A    between atoms: _558  and  _559
REMARK  259  A    between atoms: _559  and  _560
REMARK  260  A    between atoms: _559  and  _562
REMARK  261  A    between atoms: _562  and  _563
REMARK  262  A    between atoms: _566  and  _567
REMARK  263  A    between atoms: _567  and  _568
REMARK  264  A    between atoms: _567  and  _570
REMARK  265  A    between atoms: _570  and  _571
REMARK  266  A    between atoms: _571  and  _572
REMARK  267  A    between atoms: _572  and  _573
REMARK  268  A    between atoms: _575  and  _576
REMARK  269  A    between atoms: _576  and  _577
REMARK  270  A    between atoms: _576  and  _579
REMARK  271  A    between atoms: _579  and  _580
REMARK  272  A    between atoms: _580  and  _581
REMARK  273  A    between atoms: _584  and  _585
REMARK  274  A    between atoms: _585  and  _586
REMARK  275  A    between atoms: _585  and  _588
REMARK  276  A    between atoms: _588  and  _589
REMARK  277  A    between atoms: _592  and  _593
REMARK  278  A    between atoms: _593  and  _594
REMARK  279  A    between atoms: _593  and  _596
REMARK  280  A    between atoms: _596  and  _597
REMARK  281  A    between atoms: _597  and  _598
REMARK  282  A    between atoms: _598  and  _599
REMARK  283  A    between atoms: _603  and  _604
REMARK  284  A    between atoms: _604  and  _605
REMARK  285  A    between atoms: _604  and  _607
REMARK  286  A    between atoms: _610  and  _611
REMARK  287  A    between atoms: _611  and  _612
REMARK  288  A    between atoms: _611  and  _614
REMARK  289  A    between atoms: _614  and  _615
REMARK  290  A    between atoms: _618  and  _619
REMARK  291  A    between atoms: _619  and  _620
REMARK  292  A    between atoms: _619  and  _622
REMARK  293  A    between atoms: _625  and  _626
REMARK  294  A    between atoms: _626  and  _627
REMARK  295  A    between atoms: _626  and  _629
REMARK  296  A    between atoms: _629  and  _630
REMARK  297  A    between atoms: _633  and  _634
REMARK  298  A    between atoms: _634  and  _635
REMARK  299  A    between atoms: _634  and  _637
REMARK  300  A    between atoms: _640  and  _641
REMARK  301  A    between atoms: _641  and  _642
REMARK  302  A    between atoms: _641  and  _644
REMARK  303  A    between atoms: _644  and  _645
REMARK  304  A    between atoms: _648  and  _649
REMARK  305  A    between atoms: _649  and  _650
REMARK  306  A    between atoms: _649  and  _652
REMARK  307  A    between atoms: _655  and  _656
REMARK  308  A    between atoms: _656  and  _657
REMARK  309  A    between atoms: _659  and  _660
REMARK  310  A    between atoms: _660  and  _661
REMARK  311  A    between atoms: _660  and  _663
REMARK  312  A    between atoms: _663  and  _664
REMARK  313  A    between atoms: _667  and  _668
REMARK  314  A    between atoms: _668  and  _669
REMARK  315  A    between atoms: _671  and  _672
REMARK  316  A    between atoms: _672  and  _673
REMARK  317  A    between atoms: _672  and  _675
REMARK  318  A    between atoms: _675  and  _676
REMARK  319  A    between atoms: _676  and  _677
REMARK  320  A    between atoms: _679  and  _680
REMARK  321  A    between atoms: _680  and  _681
REMARK  322  A    between atoms: _680  and  _683
REMARK  323  A    between atoms: _686  and  _687
REMARK  324  A    between atoms: _687  and  _688
REMARK  325  A    between atoms: _687  and  _690
REMARK  326  A    between atoms: _690  and  _691
REMARK  327  A    between atoms: _691  and  _692
REMARK  328  A    between atoms: _692  and  _693
REMARK  329  A    between atoms: _695  and  _696
REMARK  330  A    between atoms: _696  and  _697
REMARK  331  A    between atoms: _700  and  _701
REMARK  332  A    between atoms: _701  and  _702
REMARK  333  A    between atoms: _701  and  _704
REMARK  334  A    between atoms: _704  and  _705
REMARK  335  A    between atoms: _708  and  _709
REMARK  336  A    between atoms: _709  and  _710
REMARK  337  A    between atoms: _709  and  _712
REMARK  338  A    between atoms: _712  and  _713
REMARK  339  A    between atoms: _716  and  _717
REMARK  340  A    between atoms: _717  and  _720
REMARK  341  A    between atoms: _720  and  _721
REMARK  342  A    between atoms: _733  and  _734
REMARK  343  A    between atoms: _733  and  _735
REMARK  344  A    between atoms: _741  and  _744
REMARK  345  A    between atoms: _744  and  _745
REMARK  346  A    between atoms: _758  and  _759
REMARK  347  A    between atoms: _758  and  _761
REMARK  348  A    between atoms: _759  and  _760
REMARK  349  A    between atoms: _765  and  _766
REMARK  350  A    between atoms: _768  and  _769
REMARK  351  A    between atoms: _769  and  _770
REMARK  352  A    between atoms: _769  and  _772
REMARK  353  A    between atoms: _775  and  _776
REMARK  354  A    between atoms: _776  and  _777
REMARK  355  A    between atoms: _776  and  _779
REMARK  356  A    between atoms: _779  and  _780
REMARK  357  A    between atoms: _783  and  _784
REMARK  358  A    between atoms: _784  and  _785
REMARK  359  A    between atoms: _788  and  _789
REMARK  360  A    between atoms: _789  and  _790
REMARK  361  A    between atoms: _789  and  _792
REMARK  362  A    between atoms: _792  and  _793
REMARK  363  A    between atoms: _793  and  _794
REMARK  364  A    between atoms: _794  and  _795
REMARK  365  A    between atoms: _797  and  _798
REMARK  366  A    between atoms: _798  and  _799
REMARK  367  A    between atoms: _798  and  _801
REMARK  368  A    between atoms: _803  and  _804
REMARK  369  A    between atoms: _804  and  _805
REMARK  370  A    between atoms: _807  and  _808
REMARK  371  A    between atoms: _808  and  _809
REMARK  372  A    between atoms: _808  and  _811
REMARK  373  A    between atoms: _814  and  _815
REMARK  374  A    between atoms: _815  and  _816
REMARK  375  A    between atoms: _815  and  _818
REMARK  376  A    between atoms: _818  and  _819
REMARK  377  A    between atoms: _819  and  _820
REMARK  378  A    between atoms: _820  and  _821
REMARK  379  A    between atoms: _823  and  _824
REMARK  380  A    between atoms: _824  and  _825
REMARK  381  A    between atoms: _828  and  _829
REMARK  382  A    between atoms: _829  and  _830
REMARK  383  A    between atoms: _829  and  _832
REMARK  384  A    between atoms: _832  and  _833
REMARK  385  A    between atoms: _839  and  _840
REMARK  386  A    between atoms: _840  and  _841
REMARK  387  A    between atoms: _840  and  _843
REMARK  388  A    between atoms: _843  and  _844
REMARK  389  A    between atoms: _844  and  _845
REMARK  390  A    between atoms: _847  and  _848
REMARK  391  A    between atoms: _848  and  _849
REMARK  392  A    between atoms: _848  and  _851
REMARK  393  A    between atoms: _851  and  _852
REMARK  394  A    between atoms: _852  and  _853
REMARK  395  A    between atoms: _856  and  _857
REMARK  396  A    between atoms: _857  and  _858
REMARK  397  A    between atoms: _861  and  _862
REMARK  398  A    between atoms: _862  and  _863
REMARK  399  A    between atoms: _862  and  _865
REMARK  400  A    between atoms: _865  and  _866
REMARK  401  A    between atoms: _869  and  _870
REMARK  402  A    between atoms: _870  and  _871
REMARK  403  A    between atoms: _870  and  _873
REMARK  404  A    between atoms: _873  and  _874
REMARK  405  A    between atoms: _874  and  _875
REMARK  406  A    between atoms: _878  and  _879
REMARK  407  A    between atoms: _879  and  _880
REMARK  408  A    between atoms: _883  and  _884
REMARK  409  A    between atoms: _884  and  _885
REMARK  410  A    between atoms: _887  and  _888
REMARK  411  A    between atoms: _888  and  _889
REMARK  412  A    between atoms: _892  and  _893
REMARK  413  A    between atoms: _893  and  _894
REMARK  414  A    between atoms: _893  and  _896
REMARK  415  A    between atoms: _896  and  _897
REMARK  416  A    between atoms: _900  and  _901
REMARK  417  A    between atoms: _901  and  _902
REMARK  418  A    between atoms: _901  and  _904
REMARK  419  A    between atoms: _904  and  _905
REMARK  420  A    between atoms: _908  and  _909
REMARK  421  A    between atoms: _909  and  _910
REMARK  422  A    between atoms: _909  and  _912
REMARK  423  A    between atoms: _914  and  _915
REMARK  424  A    between atoms: _915  and  _916
REMARK  425  A    between atoms: _915  and  _918
REMARK  426  A    between atoms: _918  and  _919
REMARK  427  A    between atoms: _919  and  _920
REMARK  428  A    between atoms: _922  and  _923
REMARK  429  A    between atoms: _923  and  _924
REMARK  430  A    between atoms: _923  and  _926
REMARK  431  A    between atoms: _926  and  _927
REMARK  432  A    between atoms: _930  and  _931
REMARK  433  A    between atoms: _931  and  _932
REMARK  434  A    between atoms: _934  and  _935
REMARK  435  A    between atoms: _935  and  _936
REMARK  436  A    between atoms: _935  and  _938
REMARK  437  A    between atoms: _938  and  _939
REMARK  438  A    between atoms: _939  and  _940
REMARK  439  A    between atoms: _943  and  _944
REMARK  440  A    between atoms: _944  and  _945
REMARK  441  A    between atoms: _944  and  _947
REMARK  442  A    between atoms: _947  and  _948
REMARK  443  A    between atoms: _954  and  _955
REMARK  444  A    between atoms: _955  and  _956
REMARK  445  A    between atoms: _958  and  _959
REMARK  446  A    between atoms: _959  and  _960
REMARK  447  A    between atoms: _959  and  _962
REMARK  448  A    between atoms: _965  and  _966
REMARK  449  A    between atoms: _966  and  _967
REMARK  450  A    between atoms: _969  and  _970
REMARK  451  A    between atoms: _970  and  _971
REMARK  452  A    between atoms: _970  and  _973
REMARK  453  A    between atoms: _973  and  _974
REMARK  454  A    between atoms: _980  and  _981
REMARK  455  A    between atoms: _981  and  _982
REMARK  456  A    between atoms: _981  and  _984
REMARK  457  A    between atoms: _984  and  _985
REMARK  458  A    between atoms: _992  and  _993
REMARK  459  A    between atoms: _993  and  _994
REMARK  460  A    between atoms: _993  and  _996
REMARK  461  A    between atoms: _998  and  _999
REMARK  462  A    between atoms: _999  and  _1000
REMARK  463  A    between atoms: _1003  and  _1004
REMARK  464  A    between atoms: _1004  and  _1005
REMARK  465  A    between atoms: _1004  and  _1007
REMARK  466  A    between atoms: _1007  and  _1008
REMARK  467  A    between atoms: _1015  and  _1016
REMARK  468  A    between atoms: _1016  and  _1017
REMARK  469  A    between atoms: _1016  and  _1019
REMARK  470  A    between atoms: _1019  and  _1020
REMARK  471  A    between atoms: _1023  and  _1024
REMARK  472  A    between atoms: _1024  and  _1025
REMARK  473  A    between atoms: _1024  and  _1027
REMARK  474  A    between atoms: _1030  and  _1031
REMARK  475  A    between atoms: _1031  and  _1032
REMARK  476  A    between atoms: _1035  and  _1036
REMARK  477  A    between atoms: _1036  and  _1037
REMARK  478  A    between atoms: _1036  and  _1039
REMARK  479  A    between atoms: _1039  and  _1040
REMARK  480  A    between atoms: _1040  and  _1041
REMARK  481  A    between atoms: _1044  and  _1045
REMARK  482  A    between atoms: _1045  and  _1046
REMARK  483  A    between atoms: _1045  and  _1048
REMARK  484  A    between atoms: _1048  and  _1049
REMARK  485  A    between atoms: _1049  and  _1050
REMARK  486  A    between atoms: _1050  and  _1051
REMARK  487  A    between atoms: _1053  and  _1054
REMARK  488  A    between atoms: _1054  and  _1055
REMARK  489  A    between atoms: _1054  and  _1057
REMARK  490  A    between atoms: _1060  and  _1061
REMARK  491  A    between atoms: _1061  and  _1062
REMARK  492  A    between atoms: _1061  and  _1064
REMARK  493  A    between atoms: _1067  and  _1068
REMARK  494  A    between atoms: _1068  and  _1069
REMARK  495  A    between atoms: _1068  and  _1071
REMARK  496  A    between atoms: _1074  and  _1075
REMARK  497  A    between atoms: _1075  and  _1076
REMARK  498  A    between atoms: _1075  and  _1078
REMARK  499  A    between atoms: _1078  and  _1079
REMARK  500  A    between atoms: _1082  and  _1083
REMARK  501  A    between atoms: _1083  and  _1084
REMARK  502  A    between atoms: _1083  and  _1086
REMARK  503  A    between atoms: _1089  and  _1090
REMARK  504  A    between atoms: _1090  and  _1091
REMARK  505  A    between atoms: _1090  and  _1093
REMARK  506  A    between atoms: _1093  and  _1094
REMARK  507  A    between atoms: _1094  and  _1095
REMARK  508  A    between atoms: _1095  and  _1096
REMARK  509  A    between atoms: _1098  and  _1099
REMARK  510  A    between atoms: _1099  and  _1100
REMARK  511  A    between atoms: _1099  and  _1102
REMARK  512  A    between atoms: _1102  and  _1103
REMARK  513  A    between atoms: _1108  and  _1109
REMARK  514  A    between atoms: _1109  and  _1110
REMARK  515  A    between atoms: _1109  and  _1112
REMARK  516  A    between atoms: _1112  and  _1113
REMARK  517  A    between atoms: _1116  and  _1117
REMARK  518  A    between atoms: _1117  and  _1118
REMARK  519  A    between atoms: _1117  and  _1120
REMARK  520  A    between atoms: _1120  and  _1121
REMARK  521  A    between atoms: _1124  and  _1125
REMARK  522  A    between atoms: _1125  and  _1126
REMARK  523  A    between atoms: _1125  and  _1128
REMARK  524  A    between atoms: _1128  and  _1129
REMARK  525  A    between atoms: _1132  and  _1133
REMARK  526  A    between atoms: _1133  and  _1134
REMARK  527  A    between atoms: _1133  and  _1136
REMARK  528  A    between atoms: _1136  and  _1137
REMARK  529  A    between atoms: _1137  and  _1138
REMARK  530  A    between atoms: _1141  and  _1142
REMARK  531  A    between atoms: _1142  and  _1143
REMARK  532  A    between atoms: _1142  and  _1145
REMARK  533  A    between atoms: _1145  and  _1146
REMARK  534  A    between atoms: _1146  and  _1147
REMARK  535  A    between atoms: _1150  and  _1151
REMARK  536  A    between atoms: _1151  and  _1152
REMARK  537  A    between atoms: _1151  and  _1154
REMARK  538  A    between atoms: _1154  and  _1155
REMARK  539  A    between atoms: _1162  and  _1163
REMARK  540  A    between atoms: _1163  and  _1164
REMARK  541  A    between atoms: _1167  and  _1168
REMARK  542  A    between atoms: _1168  and  _1169
REMARK  543  A    between atoms: _1168  and  _1171
REMARK  544  A    between atoms: _1171  and  _1172
REMARK  545  A    between atoms: _1181  and  _1182
REMARK  546  A    between atoms: _1182  and  _1183
REMARK  547  A    between atoms: _1182  and  _1185
REMARK  548  A    between atoms: _1185  and  _1186
REMARK  549  A    between atoms: _1186  and  _1187
REMARK  550  A    between atoms: _1190  and  _1191
REMARK  551  A    between atoms: _1191  and  _1192
REMARK  552  A    between atoms: _1191  and  _1194
REMARK  553  A    between atoms: _1196  and  _1197
REMARK  554  A    between atoms: _1197  and  _1198
REMARK  555  A    between atoms: _1197  and  _1200
REMARK  556  A    between atoms: _1202  and  _1203
REMARK  557  A    between atoms: _1203  and  _1204
REMARK  558  A    between atoms: _1207  and  _1208
REMARK  559  A    between atoms: _1208  and  _1209
REMARK  560  A    between atoms: _1211  and  _1212
REMARK  561  A    between atoms: _1212  and  _1213
REMARK  562  A    between atoms: _1215  and  _1216
REMARK  563  A    between atoms: _1216  and  _1217
REMARK  564  A    between atoms: _1216  and  _1219
REMARK  565  A    between atoms: _1221  and  _1222
REMARK  566  A    between atoms: _1222  and  _1223
REMARK  567  A    between atoms: _1222  and  _1225
REMARK  568  A    between atoms: _1225  and  _1226
REMARK  569  A    between atoms: _1232  and  _1233
REMARK  570  A    between atoms: _1233  and  _1234
REMARK  571  A    between atoms: _1233  and  _1236
REMARK  572  A    between atoms: _1239  and  _1240
REMARK  573  A    between atoms: _1240  and  _1241
REMARK  574  A    between atoms: _1240  and  _1243
REMARK  575  A    between atoms: _1247  and  _1249
REMARK  576  A    between atoms: _1247  and  _1252
REMARK  577  A    between atoms: _1251  and  _1252
REMARK  578  A    between atoms: _1251  and  _1254
REMARK  579  A    between atoms: _1253  and  _1254
REMARK  580  A    between atoms: _1253  and  _1256
REMARK  581  A    between atoms: _1254  and  _1255
REMARK  582  A    between atoms: _1255  and  _1257
REMARK  583  A    between atoms: _1256  and  _1258
REMARK  584  A    between atoms: _1265  and  _1266
REMARK  585  A    between atoms: _1266  and  _1267
REMARK  586  A    between atoms: _1266  and  _1269
REMARK  587  A    between atoms: _1272  and  _1273
REMARK  588  A    between atoms: _1273  and  _1274
REMARK  589  A    between atoms: _1273  and  _1276
REMARK  590  A    between atoms: _1276  and  _1277
REMARK  591  A    between atoms: _1280  and  _1281
REMARK  592  A    between atoms: _1281  and  _1282
REMARK  593  A    between atoms: _1281  and  _1284
REMARK  594  A    between atoms: _1287  and  _1288
REMARK  595  A    between atoms: _1288  and  _1289
REMARK  596  A    between atoms: _1291  and  _1292
REMARK  597  A    between atoms: _1292  and  _1293
REMARK  598  A    between atoms: _1292  and  _1295
REMARK  599  A    between atoms: _1295  and  _1296
REMARK  600  A    between atoms: _1296  and  _1297
REMARK  601  A    between atoms: _1301  and  _1302
REMARK  602  A    between atoms: _1307  and  _1308
REMARK  603  A    between atoms: _1308  and  _1309
REMARK  604  A    between atoms: _1308  and  _1311
REMARK  605  A    between atoms: _1311  and  _1312
REMARK  606  A    between atoms: _1312  and  _1313
REMARK  607  A    between atoms: _1315  and  _1316
REMARK  608  A    between atoms: _1316  and  _1317
REMARK  609  A    between atoms: _1319  and  _1320
REMARK  610  A    between atoms: _1320  and  _1321
REMARK  611  A    between atoms: _1320  and  _1323
REMARK  612  A    between atoms: _1323  and  _1324
REMARK  613  A    between atoms: _1324  and  _1325
REMARK  614  A    between atoms: _1325  and  _1326
REMARK  615  A    between atoms: _1330  and  _1331
REMARK  616  A    between atoms: _1331  and  _1332
REMARK  617  A    between atoms: _1334  and  _1335
REMARK  618  A    between atoms: _1335  and  _1336
REMARK  619  A    between atoms: _1335  and  _1338
REMARK  620  A    between atoms: _1341  and  _1342
REMARK  621  A    between atoms: _1342  and  _1343
REMARK  622  A    between atoms: _1342  and  _1345
REMARK  623  A    between atoms: _1345  and  _1346
REMARK  624  A    between atoms: _1346  and  _1347
REMARK  625  A    between atoms: _1347  and  _1348
REMARK  626  A    between atoms: _1350  and  _1351
REMARK  627  A    between atoms: _1351  and  _1352
REMARK  628  A    between atoms: _1351  and  _1354
REMARK  629  A    between atoms: _1357  and  _1358
REMARK  630  A    between atoms: _1358  and  _1359
REMARK  631  A    between atoms: _1358  and  _1361
REMARK  632  A    between atoms: _1361  and  _1362
REMARK  633  A    between atoms: _1365  and  _1366
REMARK  634  A    between atoms: _1366  and  _1367
REMARK  635  A    between atoms: _1366  and  _1369
REMARK  636  A    between atoms: _1369  and  _1370
REMARK  637  A    between atoms: _1373  and  _1374
REMARK  638  A    between atoms: _1374  and  _1375
REMARK  639  A    between atoms: _1374  and  _1377
REMARK  640  A    between atoms: _1377  and  _1378
REMARK  641  A    between atoms: _1383  and  _1384
REMARK  642  A    between atoms: _1384  and  _1385
REMARK  643  A    between atoms: _1384  and  _1387
REMARK  644  A    between atoms: _1387  and  _1388
REMARK  645  A    between atoms: _1391  and  _1392
REMARK  646  A    between atoms: _1392  and  _1393
REMARK  647  A    between atoms: _1392  and  _1395
REMARK  648  A    between atoms: _1395  and  _1396
REMARK  649  A    between atoms: _1396  and  _1397
REMARK  650  A    between atoms: _1397  and  _1398
REMARK  651  A    between atoms: _1400  and  _1401
REMARK  652  A    between atoms: _1401  and  _1402
REMARK  653  A    between atoms: _1401  and  _1404
REMARK  654  A    between atoms: _1404  and  _1405
REMARK  655  A    between atoms: _1405  and  _1406
REMARK  656  A    between atoms: _1409  and  _1410
REMARK  657  A    between atoms: _1410  and  _1411
REMARK  658  A    between atoms: _1410  and  _1413
REMARK  659  A    between atoms: _1413  and  _1414
REMARK  660  A    between atoms: _1417  and  _1418
REMARK  661  A    between atoms: _1418  and  _1419
REMARK  662  A    between atoms: _1418  and  _1421
REMARK  663  A    between atoms: _1421  and  _1422
REMARK  664  A    between atoms: _1422  and  _1423
REMARK  665  A    between atoms: _1426  and  _1427
REMARK  666  A    between atoms: _1427  and  _1428
REMARK  667  A    between atoms: _1427  and  _1430
REMARK  668  A    between atoms: _1433  and  _1434
REMARK  669  A    between atoms: _1434  and  _1435
REMARK  670  A    between atoms: _1434  and  _1437
REMARK  671  A    between atoms: _1437  and  _1438
REMARK  672  A    between atoms: _1438  and  _1439
REMARK  673  A    between atoms: _1442  and  _1443
REMARK  674  A    between atoms: _1443  and  _1444
REMARK  675  A    between atoms: _1443  and  _1446
REMARK  676  A    between atoms: _1446  and  _1447
REMARK  677  A    between atoms: _1454  and  _1455
REMARK  678  A    between atoms: _1455  and  _1456
REMARK  679  A    between atoms: _1455  and  _1458
REMARK  680  A    between atoms: _1458  and  _1459
REMARK  681  A    between atoms: _1462  and  _1463
REMARK  682  A    between atoms: _1463  and  _1464
REMARK  683  A    between atoms: _1463  and  _1466
REMARK  684  A    between atoms: _1466  and  _1467
REMARK  685  A    between atoms: _1467  and  _1468
REMARK  686  A    between atoms: _1471  and  _1472
REMARK  687  A    between atoms: _1472  and  _1473
REMARK  688  A    between atoms: _1472  and  _1475
REMARK  689  A    between atoms: _1475  and  _1476
REMARK  690  A    between atoms: _1476  and  _1477
REMARK  691  A    between atoms: _1480  and  _1481
REMARK  692  A    between atoms: _1481  and  _1482
REMARK  693  A    between atoms: _1481  and  _1484
REMARK  694  A    between atoms: _1484  and  _1485
REMARK  695  A    between atoms: _1485  and  _1486
REMARK  696  A    between atoms: _1486  and  _1487
REMARK  697  A    between atoms: _1491  and  _1492
REMARK  698  A    between atoms: _1492  and  _1493
REMARK  699  A    between atoms: _1492  and  _1495
REMARK  700  A    between atoms: _1495  and  _1496
REMARK  701  A    between atoms: _1496  and  _1497
REMARK  702  A    between atoms: _1497  and  _1498
REMARK  703  A    between atoms: _1502  and  _1503
REMARK  704  A    between atoms: _1503  and  _1504
REMARK  705  A    between atoms: _1503  and  _1506
REMARK  706  A    between atoms: _1506  and  _1507
REMARK  707  A    between atoms: _1510  and  _1511
REMARK  708  A    between atoms: _1511  and  _1512
REMARK  709  A    between atoms: _1511  and  _1514
REMARK  710  A    between atoms: _1514  and  _1515
REMARK  711  A    between atoms: _1515  and  _1516
REMARK  712  A    between atoms: _1516  and  _1517
REMARK  713  A    between atoms: _1519  and  _1520
REMARK  714  A    between atoms: _1520  and  _1521
REMARK  715  A    between atoms: _1520  and  _1523
REMARK  716  A    between atoms: _1523  and  _1524
REMARK  717  A    between atoms: _1524  and  _1525
REMARK  718  A    between atoms: _1528  and  _1529
REMARK  719  A    between atoms: _1529  and  _1530
REMARK  720  A    between atoms: _1529  and  _1532
REMARK  721  A    between atoms: _1532  and  _1533
REMARK  722  A    between atoms: _1536  and  _1537
REMARK  723  A    between atoms: _1537  and  _1538
REMARK  724  A    between atoms: _1537  and  _1540
REMARK  725  A    between atoms: _1543  and  _1544
REMARK  726  A    between atoms: _1544  and  _1545
REMARK  727  A    between atoms: _1544  and  _1547
REMARK  728  A    between atoms: _1547  and  _1548
REMARK  729  A    between atoms: _1548  and  _1549
REMARK  730  A    between atoms: _1549  and  _1550
REMARK  731  A    between atoms: _1552  and  _1553
REMARK  732  A    between atoms: _1553  and  _1554
REMARK  733  A    between atoms: _1553  and  _1556
REMARK  734  A    between atoms: _1556  and  _1557
REMARK  735  A    between atoms: _1557  and  _1558
REMARK  736  A    between atoms: _1558  and  _1559
REMARK  737  A    between atoms: _1561  and  _1562
REMARK  738  A    between atoms: _1562  and  _1563
REMARK  739  A    between atoms: _1562  and  _1565
REMARK  740  A    between atoms: _1565  and  _1566
REMARK  741  A    between atoms: _1571  and  _1572
REMARK  742  A    between atoms: _1572  and  _1573
REMARK  743  A    between atoms: _1572  and  _1575
REMARK  744  A    between atoms: _1577  and  _1578
REMARK  745  A    between atoms: _1578  and  _1579
REMARK  746  A    between atoms: _1578  and  _1581
REMARK  747  A    between atoms: _1581  and  _1582
REMARK  748  A    between atoms: _1582  and  _1583
REMARK  749  A    between atoms: _1586  and  _1587
REMARK  750  A    between atoms: _1587  and  _1588
REMARK  751  A    between atoms: _1587  and  _1590
REMARK  752  A    between atoms: _1590  and  _1591
REMARK  753  A    between atoms: _1597  and  _1598
REMARK  754  A    between atoms: _1598  and  _1599
REMARK  755  A    between atoms: _1598  and  _1601
REMARK  756  A    between atoms: _1601  and  _1602
REMARK  757  A    between atoms: _1605  and  _1606
REMARK  758  A    between atoms: _1606  and  _1607
REMARK  759  A    between atoms: _1609  and  _1610
REMARK  760  A    between atoms: _1610  and  _1611
REMARK  761  A    between atoms: _1610  and  _1613
REMARK  762  A    between atoms: _1613  and  _1614
REMARK  763  A    between atoms: _1622  and  _1623
REMARK  764  A    between atoms: _1628  and  _1629
REMARK  765  A    between atoms: _1629  and  _1630
REMARK  766  A    between atoms: _1629  and  _1632
REMARK  767  A    between atoms: _1632  and  _1633
REMARK  768  A    between atoms: _1636  and  _1637
REMARK  769  A    between atoms: _1637  and  _1638
REMARK  770  A    between atoms: _1637  and  _1640
REMARK  771  A    between atoms: _1643  and  _1644
REMARK  772  A    between atoms: _1644  and  _1645
REMARK  773  A    between atoms: _1644  and  _1647
REMARK  774  A    between atoms: _1647  and  _1648
REMARK  775  A    between atoms: _1651  and  _1652
REMARK  776  A    between atoms: _1652  and  _1653
REMARK  777  A    between atoms: _1652  and  _1655
REMARK  778  A    between atoms: _1655  and  _1656
REMARK  779  A    between atoms: _1662  and  _1663
REMARK  780  A    between atoms: _1663  and  _1664
REMARK  781  A    between atoms: _1663  and  _1666
REMARK  782  A    between atoms: _1669  and  _1670
REMARK  783  A    between atoms: _1670  and  _1671
REMARK  784  A    between atoms: _1670  and  _1673
REMARK  785  A    between atoms: _1673  and  _1674
REMARK  786  A    between atoms: _1674  and  _1675
REMARK                            x       y       z     vdW  Elec       q    Type
REMARK                         _______ _______ _______ _____ _____    ______ ____
ROOT
ATOM      1  C   UNL     1      -2.598   6.487  16.049  0.00  0.00    +0.000 C 
ENDROOT
TORSDOF 0
REMARK  Name = /Users/mlugowska/PhD/ML_residence_time_prediction/protein_files/5J64_protein.pdb
REMARK  786 active torsions:
REMARK  status: ('A' for Active; 'I' for Inactive)
REMARK    1  A    between atoms: _2  and  _3
REMARK    2  A    between atoms: _2  and  _5
REMARK    3  A    between atoms: _5  and  _6
REMARK    4  A    between atoms: _6  and  _7
REMARK    5  A    between atoms: _10  and  _11
REMARK    6  A    between atoms: _11  and  _12
REMARK    7  A    between atoms: _11  and  _14
REMARK    8  A    between atoms: _17  and  _18
REMARK    9  A    between atoms: _18  and  _19
REMARK   10  A    between atoms: _18  and  _21
REMARK   11  A    between atoms: _21  and  _22
REMARK   12  A    between atoms: _22  and  _23
REMARK   13  A    between atoms: _26  and  _27
REMARK   14  A    between atoms: _27  and  _28
REMARK   15  A    between atoms: _27  and  _30
REMARK   16  A    between atoms: _33  and  _34
REMARK   17  A    between atoms: _34  and  _35
REMARK   18  A    between atoms: _34  and  _37
REMARK   19  A    between atoms: _37  and  _38
REMARK   20  A    between atoms: _44  and  _45
REMARK   21  A    between atoms: _45  and  _46
REMARK   22  A    between atoms: _49  and  _50
REMARK   23  A    between atoms: _50  and  _51
REMARK   24  A    between atoms: _50  and  _53
REMARK   25  A    between atoms: _53  and  _54
REMARK   26  A    between atoms: _60  and  _61
REMARK   27  A    between atoms: _61  and  _62
REMARK   28  A    between atoms: _61  and  _64
REMARK   29  A    between atoms: _64  and  _65
REMARK   30  A    between atoms: _65  and  _66
REMARK   31  A    between atoms: _69  and  _70
REMARK   32  A    between atoms: _70  and  _71
REMARK   33  A    between atoms: _74  and  _75
REMARK   34  A    between atoms: _75  and  _76
REMARK   35  A    between atoms: _75  and  _78
REMARK   36  A    between atoms: _78  and  _79
REMARK   37  A    between atoms: _79  and  _80
REMARK   38  A    between atoms: _83  and  _84
REMARK   39  A    between atoms: _84  and  _85
REMARK   40  A    between atoms: _84  and  _87
REMARK   41  A    between atoms: _87  and  _88
REMARK   42  A    between atoms: _91  and  _92
REMARK   43  A    between atoms: _92  and  _93
REMARK   44  A    between atoms: _96  and  _97
REMARK   45  A    between atoms: _97  and  _98
REMARK   46  A    between atoms: _97  and  _100
REMARK   47  A    between atoms: _100  and  _101
REMARK   48  A    between atoms: _101  and  _102
REMARK   49  A    between atoms: _105  and  _106
REMARK   50  A    between atoms: _106  and  _107
REMARK   51  A    between atoms: _106  and  _109
REMARK   52  A    between atoms: _109  and  _110
REMARK   53  A    between atoms: _113  and  _114
REMARK   54  A    between atoms: _114  and  _115
REMARK   55  A    between atoms: _114  and  _117
REMARK   56  A    between atoms: _117  and  _118
REMARK   57  A    between atoms: _118  and  _119
REMARK   58  A    between atoms: _121  and  _122
REMARK   59  A    between atoms: _122  and  _123
REMARK   60  A    between atoms: _122  and  _125
REMARK   61  A    between atoms: _127  and  _128
REMARK   62  A    between atoms: _128  and  _129
REMARK   63  A    between atoms: _128  and  _131
REMARK   64  A    between atoms: _131  and  _132
REMARK   65  A    between atoms: _135  and  _136
REMARK   66  A    between atoms: _136  and  _137
REMARK   67  A    between atoms: _136  and  _139
REMARK   68  A    between atoms: _139  and  _140
REMARK   69  A    between atoms: _143  and  _144
REMARK   70  A    between atoms: _144  and  _145
REMARK   71  A    between atoms: _144  and  _147
REMARK   72  A    between atoms: _147  and  _148
REMARK   73  A    between atoms: _151  and  _152
REMARK   74  A    between atoms: _152  and  _153
REMARK   75  A    between atoms: _152  and  _155
REMARK   76  A    between atoms: _155  and  _156
REMARK   77  A    between atoms: _159  and  _160
REMARK   78  A    between atoms: _160  and  _161
REMARK   79  A    between atoms: _160  and  _163
REMARK   80  A    between atoms: _166  and  _167
REMARK   81  A    between atoms: _167  and  _170
REMARK   82  A    between atoms: _170  and  _171
REMARK   83  A    between atoms: _181  and  _183
REMARK   84  A    between atoms: _183  and  _184
REMARK   85  A    between atoms: _189  and  _194
REMARK   86  A    between atoms: _192  and  _195
REMARK   87  A    between atoms: _193  and  _194
REMARK   88  A    between atoms: _195  and  _196
REMARK   89  A    between atoms: _201  and  _202
REMARK   90  A    between atoms: _202  and  _203
REMARK   91  A    between atoms: _202  and  _205
REMARK   92  A    between atoms: _207  and  _208
REMARK   93  A    between atoms: _208  and  _209
REMARK   94  A    between atoms: _208  and  _211
REMARK   95  A    between atoms: _211  and  _212
REMARK   96  A    between atoms: _215  and  _216
REMARK   97  A    between atoms: _216  and  _217
REMARK   98  A    between atoms: _216  and  _219
REMARK   99  A    between atoms: _219  and  _220
REMARK  100  A    between atoms: _220  and  _221
REMARK  101  A    between atoms: _221  and  _222
REMARK  102  A    between atoms: _224  and  _225
REMARK  103  A    between atoms: _225  and  _226
REMARK  104  A    between atoms: _225  and  _228
REMARK  105  A    between atoms: _228  and  _229
REMARK  106  A    between atoms: _229  and  _230
REMARK  107  A    between atoms: _233  and  _234
REMARK  108  A    between atoms: _234  and  _235
REMARK  109  A    between atoms: _234  and  _237
REMARK  110  A    between atoms: _237  and  _238
REMARK  111  A    between atoms: _241  and  _242
REMARK  112  A    between atoms: _242  and  _243
REMARK  113  A    between atoms: _242  and  _245
REMARK  114  A    between atoms: _245  and  _246
REMARK  115  A    between atoms: _252  and  _253
REMARK  116  A    between atoms: _253  and  _254
REMARK  117  A    between atoms: _253  and  _256
REMARK  118  A    between atoms: _256  and  _257
REMARK  119  A    between atoms: _260  and  _261
REMARK  120  A    between atoms: _261  and  _262
REMARK  121  A    between atoms: _261  and  _264
REMARK  122  A    between atoms: _264  and  _265
REMARK  123  A    between atoms: _265  and  _266
REMARK  124  A    between atoms: _266  and  _267
REMARK  125  A    between atoms: _271  and  _272
REMARK  126  A    between atoms: _272  and  _273
REMARK  127  A    between atoms: _272  and  _275
REMARK  128  A    between atoms: _275  and  _276
REMARK  129  A    between atoms: _276  and  _277
REMARK  130  A    between atoms: _280  and  _281
REMARK  131  A    between atoms: _281  and  _282
REMARK  132  A    between atoms: _281  and  _284
REMARK  133  A    between atoms: _284  and  _285
REMARK  134  A    between atoms: _288  and  _289
REMARK  135  A    between atoms: _289  and  _292
REMARK  136  A    between atoms: _292  and  _293
REMARK  137  A    between atoms: _309  and  _310
REMARK  138  A    between atoms: _309  and  _312
REMARK  139  A    between atoms: _312  and  _313
REMARK  140  A    between atoms: _316  and  _317
REMARK  141  A    between atoms: _317  and  _318
REMARK  142  A    between atoms: _317  and  _320
REMARK  143  A    between atoms: _322  and  _323
REMARK  144  A    between atoms: _323  and  _324
REMARK  145  A    between atoms: _323  and  _326
REMARK  146  A    between atoms: _328  and  _329
REMARK  147  A    between atoms: _329  and  _330
REMARK  148  A    between atoms: _329  and  _332
REMARK  149  A    between atoms: _332  and  _333
REMARK  150  A    between atoms: _336  and  _337
REMARK  151  A    between atoms: _337  and  _338
REMARK  152  A    between atoms: _341  and  _342
REMARK  153  A    between atoms: _342  and  _343
REMARK  154  A    between atoms: _342  and  _345
REMARK  155  A    between atoms: _345  and  _346
REMARK  156  A    between atoms: _349  and  _350
REMARK  157  A    between atoms: _350  and  _351
REMARK  158  A    between atoms: _350  and  _353
REMARK  159  A    between atoms: _353  and  _354
REMARK  160  A    between atoms: _357  and  _358
REMARK  161  A    between atoms: _358  and  _359
REMARK  162  A    between atoms: _358  and  _361
REMARK  163  A    between atoms: _361  and  _362
REMARK  164  A    between atoms: _362  and  _363
REMARK  165  A    between atoms: _363  and  _364
REMARK  166  A    between atoms: _366  and  _367
REMARK  167  A    between atoms: _367  and  _368
REMARK  168  A    between atoms: _367  and  _370
REMARK  169  A    between atoms: _370  and  _371
REMARK  170  A    between atoms: _374  and  _375
REMARK  171  A    between atoms: _375  and  _376
REMARK  172  A    between atoms: _375  and  _378
REMARK  173  A    between atoms: _378  and  _379
REMARK  174  A    between atoms: _379  and  _380
REMARK  175  A    between atoms: _380  and  _381
REMARK  176  A    between atoms: _385  and  _386
REMARK  177  A    between atoms: _386  and  _387
REMARK  178  A    between atoms: _386  and  _389
REMARK  179  A    between atoms: _389  and  _390
REMARK  180  A    between atoms: _397  and  _398
REMARK  181  A    between atoms: _398  and  _399
REMARK  182  A    between atoms: _398  and  _401
REMARK  183  A    between atoms: _401  and  _402
REMARK  184  A    between atoms: _402  and  _403
REMARK  185  A    between atoms: _406  and  _407
REMARK  186  A    between atoms: _407  and  _408
REMARK  187  A    between atoms: _407  and  _410
REMARK  188  A    between atoms: _412  and  _413
REMARK  189  A    between atoms: _413  and  _414
REMARK  190  A    between atoms: _413  and  _416
REMARK  191  A    between atoms: _416  and  _417
REMARK  192  A    between atoms: _420  and  _421
REMARK  193  A    between atoms: _421  and  _422
REMARK  194  A    between atoms: _421  and  _424
REMARK  195  A    between atoms: _427  and  _428
REMARK  196  A    between atoms: _428  and  _429
REMARK  197  A    between atoms: _428  and  _431
REMARK  198  A    between atoms: _431  and  _432
REMARK  199  A    between atoms: _436  and  _437
REMARK  200  A    between atoms: _442  and  _443
REMARK  201  A    between atoms: _443  and  _444
REMARK  202  A    between atoms: _443  and  _446
REMARK  203  A    between atoms: _448  and  _449
REMARK  204  A    between atoms: _449  and  _450
REMARK  205  A    between atoms: _449  and  _452
REMARK  206  A    between atoms: _452  and  _453
REMARK  207  A    between atoms: _453  and  _454
REMARK  208  A    between atoms: _454  and  _455
REMARK  209  A    between atoms: _457  and  _458
REMARK  210  A    between atoms: _458  and  _459
REMARK  211  A    between atoms: _458  and  _461
REMARK  212  A    between atoms: _461  and  _462
REMARK  213  A    between atoms: _465  and  _466
REMARK  214  A    between atoms: _466  and  _467
REMARK  215  A    between atoms: _466  and  _469
REMARK  216  A    between atoms: _469  and  _470
REMARK  217  A    between atoms: _473  and  _474
REMARK  218  A    between atoms: _474  and  _475
REMARK  219  A    between atoms: _474  and  _477
REMARK  220  A    between atoms: _479  and  _480
REMARK  221  A    between atoms: _480  and  _481
REMARK  222  A    between atoms: _483  and  _484
REMARK  223  A    between atoms: _484  and  _485
REMARK  224  A    between atoms: _484  and  _487
REMARK  225  A    between atoms: _487  and  _488
REMARK  226  A    between atoms: _488  and  _489
REMARK  227  A    between atoms: _489  and  _490
REMARK  228  A    between atoms: _492  and  _493
REMARK  229  A    between atoms: _493  and  _494
REMARK  230  A    between atoms: _493  and  _496
REMARK  231  A    between atoms: _496  and  _497
REMARK  232  A    between atoms: _497  and  _498
REMARK  233  A    between atoms: _501  and  _502
REMARK  234  A    between atoms: _502  and  _503
REMARK  235  A    between atoms: _502  and  _505
REMARK  236  A    between atoms: _505  and  _506
REMARK  237  A    between atoms: _509  and  _510
REMARK  238  A    between atoms: _510  and  _511
REMARK  239  A    between atoms: _510  and  _513
REMARK  240  A    between atoms: _513  and  _514
REMARK  241  A    between atoms: _519  and  _520
REMARK  242  A    between atoms: _520  and  _521
REMARK  243  A    between atoms: _520  and  _523
REMARK  244  A    between atoms: _523  and  _524
REMARK  245  A    between atoms: _527  and  _528
REMARK  246  A    between atoms: _528  and  _529
REMARK  247  A    between atoms: _528  and  _531
REMARK  248  A    between atoms: _531  and  _532
REMARK  249  A    between atoms: _535  and  _536
REMARK  250  A    between atoms: _536  and  _537
REMARK  251  A    between atoms: _536  and  _539
REMARK  252  A    between atoms: _539  and  _540
REMARK  253  A    between atoms: _543  and  _544
REMARK  254  A    between atoms: _544  and  _545
REMARK  255  A    between atoms: _544  and  _547
REMARK  256  A    between atoms: _547  and  _548
REMARK  257  A    between atoms: _552  and  _553
REMARK  258  A    between atoms: _558  and  _559
REMARK  259  A    between atoms: _559  and  _560
REMARK  260  A    between atoms: _559  and  _562
REMARK  261  A    between atoms: _562  and  _563
REMARK  262  A    between atoms: _566  and  _567
REMARK  263  A    between atoms: _567  and  _568
REMARK  264  A    between atoms: _567  and  _570
REMARK  265  A    between atoms: _570  and  _571
REMARK  266  A    between atoms: _571  and  _572
REMARK  267  A    between atoms: _572  and  _573
REMARK  268  A    between atoms: _575  and  _576
REMARK  269  A    between atoms: _576  and  _577
REMARK  270  A    between atoms: _576  and  _579
REMARK  271  A    between atoms: _579  and  _580
REMARK  272  A    between atoms: _580  and  _581
REMARK  273  A    between atoms: _584  and  _585
REMARK  274  A    between atoms: _585  and  _586
REMARK  275  A    between atoms: _585  and  _588
REMARK  276  A    between atoms: _588  and  _589
REMARK  277  A    between atoms: _592  and  _593
REMARK  278  A    between atoms: _593  and  _594
REMARK  279  A    between atoms: _593  and  _596
REMARK  280  A    between atoms: _596  and  _597
REMARK  281  A    between atoms: _597  and  _598
REMARK  282  A    between atoms: _598  and  _599
REMARK  283  A    between atoms: _603  and  _604
REMARK  284  A    between atoms: _604  and  _605
REMARK  285  A    between atoms: _604  and  _607
REMARK  286  A    between atoms: _610  and  _611
REMARK  287  A    between atoms: _611  and  _612
REMARK  288  A    between atoms: _611  and  _614
REMARK  289  A    between atoms: _614  and  _615
REMARK  290  A    between atoms: _618  and  _619
REMARK  291  A    between atoms: _619  and  _620
REMARK  292  A    between atoms: _619  and  _622
REMARK  293  A    between atoms: _625  and  _626
REMARK  294  A    between atoms: _626  and  _627
REMARK  295  A    between atoms: _626  and  _629
REMARK  296  A    between atoms: _629  and  _630
REMARK  297  A    between atoms: _633  and  _634
REMARK  298  A    between atoms: _634  and  _635
REMARK  299  A    between atoms: _634  and  _637
REMARK  300  A    between atoms: _640  and  _641
REMARK  301  A    between atoms: _641  and  _642
REMARK  302  A    between atoms: _641  and  _644
REMARK  303  A    between atoms: _644  and  _645
REMARK  304  A    between atoms: _648  and  _649
REMARK  305  A    between atoms: _649  and  _650
REMARK  306  A    between atoms: _649  and  _652
REMARK  307  A    between atoms: _655  and  _656
REMARK  308  A    between atoms: _656  and  _657
REMARK  309  A    between atoms: _659  and  _660
REMARK  310  A    between atoms: _660  and  _661
REMARK  311  A    between atoms: _660  and  _663
REMARK  312  A    between atoms: _663  and  _664
REMARK  313  A    between atoms: _667  and  _668
REMARK  314  A    between atoms: _668  and  _669
REMARK  315  A    between atoms: _671  and  _672
REMARK  316  A    between atoms: _672  and  _673
REMARK  317  A    between atoms: _672  and  _675
REMARK  318  A    between atoms: _675  and  _676
REMARK  319  A    between atoms: _676  and  _677
REMARK  320  A    between atoms: _679  and  _680
REMARK  321  A    between atoms: _680  and  _681
REMARK  322  A    between atoms: _680  and  _683
REMARK  323  A    between atoms: _686  and  _687
REMARK  324  A    between atoms: _687  and  _688
REMARK  325  A    between atoms: _687  and  _690
REMARK  326  A    between atoms: _690  and  _691
REMARK  327  A    between atoms: _691  and  _692
REMARK  328  A    between atoms: _692  and  _693
REMARK  329  A    between atoms: _695  and  _696
REMARK  330  A    between atoms: _696  and  _697
REMARK  331  A    between atoms: _700  and  _701
REMARK  332  A    between atoms: _701  and  _702
REMARK  333  A    between atoms: _701  and  _704
REMARK  334  A    between atoms: _704  and  _705
REMARK  335  A    between atoms: _708  and  _709
REMARK  336  A    between atoms: _709  and  _710
REMARK  337  A    between atoms: _709  and  _712
REMARK  338  A    between atoms: _712  and  _713
REMARK  339  A    between atoms: _716  and  _717
REMARK  340  A    between atoms: _717  and  _720
REMARK  341  A    between atoms: _720  and  _721
REMARK  342  A    between atoms: _733  and  _734
REMARK  343  A    between atoms: _733  and  _735
REMARK  344  A    between atoms: _741  and  _744
REMARK  345  A    between atoms: _744  and  _745
REMARK  346  A    between atoms: _758  and  _759
REMARK  347  A    between atoms: _758  and  _761
REMARK  348  A    between atoms: _759  and  _760
REMARK  349  A    between atoms: _765  and  _766
REMARK  350  A    between atoms: _768  and  _769
REMARK  351  A    between atoms: _769  and  _770
REMARK  352  A    between atoms: _769  and  _772
REMARK  353  A    between atoms: _775  and  _776
REMARK  354  A    between atoms: _776  and  _777
REMARK  355  A    between atoms: _776  and  _779
REMARK  356  A    between atoms: _779  and  _780
REMARK  357  A    between atoms: _783  and  _784
REMARK  358  A    between atoms: _784  and  _785
REMARK  359  A    between atoms: _788  and  _789
REMARK  360  A    between atoms: _789  and  _790
REMARK  361  A    between atoms: _789  and  _792
REMARK  362  A    between atoms: _792  and  _793
REMARK  363  A    between atoms: _793  and  _794
REMARK  364  A    between atoms: _794  and  _795
REMARK  365  A    between atoms: _797  and  _798
REMARK  366  A    between atoms: _798  and  _799
REMARK  367  A    between atoms: _798  and  _801
REMARK  368  A    between atoms: _803  and  _804
REMARK  369  A    between atoms: _804  and  _805
REMARK  370  A    between atoms: _807  and  _808
REMARK  371  A    between atoms: _808  and  _809
REMARK  372  A    between atoms: _808  and  _811
REMARK  373  A    between atoms: _814  and  _815
REMARK  374  A    between atoms: _815  and  _816
REMARK  375  A    between atoms: _815  and  _818
REMARK  376  A    between atoms: _818  and  _819
REMARK  377  A    between atoms: _819  and  _820
REMARK  378  A    between atoms: _820  and  _821
REMARK  379  A    between atoms: _823  and  _824
REMARK  380  A    between atoms: _824  and  _825
REMARK  381  A    between atoms: _828  and  _829
REMARK  382  A    between atoms: _829  and  _830
REMARK  383  A    between atoms: _829  and  _832
REMARK  384  A    between atoms: _832  and  _833
REMARK  385  A    between atoms: _839  and  _840
REMARK  386  A    between atoms: _840  and  _841
REMARK  387  A    between atoms: _840  and  _843
REMARK  388  A    between atoms: _843  and  _844
REMARK  389  A    between atoms: _844  and  _845
REMARK  390  A    between atoms: _847  and  _848
REMARK  391  A    between atoms: _848  and  _849
REMARK  392  A    between atoms: _848  and  _851
REMARK  393  A    between atoms: _851  and  _852
REMARK  394  A    between atoms: _852  and  _853
REMARK  395  A    between atoms: _856  and  _857
REMARK  396  A    between atoms: _857  and  _858
REMARK  397  A    between atoms: _861  and  _862
REMARK  398  A    between atoms: _862  and  _863
REMARK  399  A    between atoms: _862  and  _865
REMARK  400  A    between atoms: _865  and  _866
REMARK  401  A    between atoms: _869  and  _870
REMARK  402  A    between atoms: _870  and  _871
REMARK  403  A    between atoms: _870  and  _873
REMARK  404  A    between atoms: _873  and  _874
REMARK  405  A    between atoms: _874  and  _875
REMARK  406  A    between atoms: _878  and  _879
REMARK  407  A    between atoms: _879  and  _880
REMARK  408  A    between atoms: _883  and  _884
REMARK  409  A    between atoms: _884  and  _885
REMARK  410  A    between atoms: _887  and  _888
REMARK  411  A    between atoms: _888  and  _889
REMARK  412  A    between atoms: _892  and  _893
REMARK  413  A    between atoms: _893  and  _894
REMARK  414  A    between atoms: _893  and  _896
REMARK  415  A    between atoms: _896  and  _897
REMARK  416  A    between atoms: _900  and  _901
REMARK  417  A    between atoms: _901  and  _902
REMARK  418  A    between atoms: _901  and  _904
REMARK  419  A    between atoms: _904  and  _905
REMARK  420  A    between atoms: _908  and  _909
REMARK  421  A    between atoms: _909  and  _910
REMARK  422  A    between atoms: _909  and  _912
REMARK  423  A    between atoms: _914  and  _915
REMARK  424  A    between atoms: _915  and  _916
REMARK  425  A    between atoms: _915  and  _918
REMARK  426  A    between atoms: _918  and  _919
REMARK  427  A    between atoms: _919  and  _920
REMARK  428  A    between atoms: _922  and  _923
REMARK  429  A    between atoms: _923  and  _924
REMARK  430  A    between atoms: _923  and  _926
REMARK  431  A    between atoms: _926  and  _927
REMARK  432  A    between atoms: _930  and  _931
REMARK  433  A    between atoms: _931  and  _932
REMARK  434  A    between atoms: _934  and  _935
REMARK  435  A    between atoms: _935  and  _936
REMARK  436  A    between atoms: _935  and  _938
REMARK  437  A    between atoms: _938  and  _939
REMARK  438  A    between atoms: _939  and  _940
REMARK  439  A    between atoms: _943  and  _944
REMARK  440  A    between atoms: _944  and  _945
REMARK  441  A    between atoms: _944  and  _947
REMARK  442  A    between atoms: _947  and  _948
REMARK  443  A    between atoms: _954  and  _955
REMARK  444  A    between atoms: _955  and  _956
REMARK  445  A    between atoms: _958  and  _959
REMARK  446  A    between atoms: _959  and  _960
REMARK  447  A    between atoms: _959  and  _962
REMARK  448  A    between atoms: _965  and  _966
REMARK  449  A    between atoms: _966  and  _967
REMARK  450  A    between atoms: _969  and  _970
REMARK  451  A    between atoms: _970  and  _971
REMARK  452  A    between atoms: _970  and  _973
REMARK  453  A    between atoms: _973  and  _974
REMARK  454  A    between atoms: _980  and  _981
REMARK  455  A    between atoms: _981  and  _982
REMARK  456  A    between atoms: _981  and  _984
REMARK  457  A    between atoms: _984  and  _985
REMARK  458  A    between atoms: _992  and  _993
REMARK  459  A    between atoms: _993  and  _994
REMARK  460  A    between atoms: _993  and  _996
REMARK  461  A    between atoms: _998  and  _999
REMARK  462  A    between atoms: _999  and  _1000
REMARK  463  A    between atoms: _1003  and  _1004
REMARK  464  A    between atoms: _1004  and  _1005
REMARK  465  A    between atoms: _1004  and  _1007
REMARK  466  A    between atoms: _1007  and  _1008
REMARK  467  A    between atoms: _1015  and  _1016
REMARK  468  A    between atoms: _1016  and  _1017
REMARK  469  A    between atoms: _1016  and  _1019
REMARK  470  A    between atoms: _1019  and  _1020
REMARK  471  A    between atoms: _1023  and  _1024
REMARK  472  A    between atoms: _1024  and  _1025
REMARK  473  A    between atoms: _1024  and  _1027
REMARK  474  A    between atoms: _1030  and  _1031
REMARK  475  A    between atoms: _1031  and  _1032
REMARK  476  A    between atoms: _1035  and  _1036
REMARK  477  A    between atoms: _1036  and  _1037
REMARK  478  A    between atoms: _1036  and  _1039
REMARK  479  A    between atoms: _1039  and  _1040
REMARK  480  A    between atoms: _1040  and  _1041
REMARK  481  A    between atoms: _1044  and  _1045
REMARK  482  A    between atoms: _1045  and  _1046
REMARK  483  A    between atoms: _1045  and  _1048
REMARK  484  A    between atoms: _1048  and  _1049
REMARK  485  A    between atoms: _1049  and  _1050
REMARK  486  A    between atoms: _1050  and  _1051
REMARK  487  A    between atoms: _1053  and  _1054
REMARK  488  A    between atoms: _1054  and  _1055
REMARK  489  A    between atoms: _1054  and  _1057
REMARK  490  A    between atoms: _1060  and  _1061
REMARK  491  A    between atoms: _1061  and  _1062
REMARK  492  A    between atoms: _1061  and  _1064
REMARK  493  A    between atoms: _1067  and  _1068
REMARK  494  A    between atoms: _1068  and  _1069
REMARK  495  A    between atoms: _1068  and  _1071
REMARK  496  A    between atoms: _1074  and  _1075
REMARK  497  A    between atoms: _1075  and  _1076
REMARK  498  A    between atoms: _1075  and  _1078
REMARK  499  A    between atoms: _1078  and  _1079
REMARK  500  A    between atoms: _1082  and  _1083
REMARK  501  A    between atoms: _1083  and  _1084
REMARK  502  A    between atoms: _1083  and  _1086
REMARK  503  A    between atoms: _1089  and  _1090
REMARK  504  A    between atoms: _1090  and  _1091
REMARK  505  A    between atoms: _1090  and  _1093
REMARK  506  A    between atoms: _1093  and  _1094
REMARK  507  A    between atoms: _1094  and  _1095
REMARK  508  A    between atoms: _1095  and  _1096
REMARK  509  A    between atoms: _1098  and  _1099
REMARK  510  A    between atoms: _1099  and  _1100
REMARK  511  A    between atoms: _1099  and  _1102
REMARK  512  A    between atoms: _1102  and  _1103
REMARK  513  A    between atoms: _1108  and  _1109
REMARK  514  A    between atoms: _1109  and  _1110
REMARK  515  A    between atoms: _1109  and  _1112
REMARK  516  A    between atoms: _1112  and  _1113
REMARK  517  A    between atoms: _1116  and  _1117
REMARK  518  A    between atoms: _1117  and  _1118
REMARK  519  A    between atoms: _1117  and  _1120
REMARK  520  A    between atoms: _1120  and  _1121
REMARK  521  A    between atoms: _1124  and  _1125
REMARK  522  A    between atoms: _1125  and  _1126
REMARK  523  A    between atoms: _1125  and  _1128
REMARK  524  A    between atoms: _1128  and  _1129
REMARK  525  A    between atoms: _1132  and  _1133
REMARK  526  A    between atoms: _1133  and  _1134
REMARK  527  A    between atoms: _1133  and  _1136
REMARK  528  A    between atoms: _1136  and  _1137
REMARK  529  A    between atoms: _1137  and  _1138
REMARK  530  A    between atoms: _1141  and  _1142
REMARK  531  A    between atoms: _1142  and  _1143
REMARK  532  A    between atoms: _1142  and  _1145
REMARK  533  A    between atoms: _1145  and  _1146
REMARK  534  A    between atoms: _1146  and  _1147
REMARK  535  A    between atoms: _1150  and  _1151
REMARK  536  A    between atoms: _1151  and  _1152
REMARK  537  A    between atoms: _1151  and  _1154
REMARK  538  A    between atoms: _1154  and  _1155
REMARK  539  A    between atoms: _1162  and  _1163
REMARK  540  A    between atoms: _1163  and  _1164
REMARK  541  A    between atoms: _1167  and  _1168
REMARK  542  A    between atoms: _1168  and  _1169
REMARK  543  A    between atoms: _1168  and  _1171
REMARK  544  A    between atoms: _1171  and  _1172
REMARK  545  A    between atoms: _1181  and  _1182
REMARK  546  A    between atoms: _1182  and  _1183
REMARK  547  A    between atoms: _1182  and  _1185
REMARK  548  A    between atoms: _1185  and  _1186
REMARK  549  A    between atoms: _1186  and  _1187
REMARK  550  A    between atoms: _1190  and  _1191
REMARK  551  A    between atoms: _1191  and  _1192
REMARK  552  A    between atoms: _1191  and  _1194
REMARK  553  A    between atoms: _1196  and  _1197
REMARK  554  A    between atoms: _1197  and  _1198
REMARK  555  A    between atoms: _1197  and  _1200
REMARK  556  A    between atoms: _1202  and  _1203
REMARK  557  A    between atoms: _1203  and  _1204
REMARK  558  A    between atoms: _1207  and  _1208
REMARK  559  A    between atoms: _1208  and  _1209
REMARK  560  A    between atoms: _1211  and  _1212
REMARK  561  A    between atoms: _1212  and  _1213
REMARK  562  A    between atoms: _1215  and  _1216
REMARK  563  A    between atoms: _1216  and  _1217
REMARK  564  A    between atoms: _1216  and  _1219
REMARK  565  A    between atoms: _1221  and  _1222
REMARK  566  A    between atoms: _1222  and  _1223
REMARK  567  A    between atoms: _1222  and  _1225
REMARK  568  A    between atoms: _1225  and  _1226
REMARK  569  A    between atoms: _1232  and  _1233
REMARK  570  A    between atoms: _1233  and  _1234
REMARK  571  A    between atoms: _1233  and  _1236
REMARK  572  A    between atoms: _1239  and  _1240
REMARK  573  A    between atoms: _1240  and  _1241
REMARK  574  A    between atoms: _1240  and  _1243
REMARK  575  A    between atoms: _1247  and  _1249
REMARK  576  A    between atoms: _1247  and  _1252
REMARK  577  A    between atoms: _1251  and  _1252
REMARK  578  A    between atoms: _1251  and  _1254
REMARK  579  A    between atoms: _1253  and  _1254
REMARK  580  A    between atoms: _1253  and  _1256
REMARK  581  A    between atoms: _1254  and  _1255
REMARK  582  A    between atoms: _1255  and  _1257
REMARK  583  A    between atoms: _1256  and  _1258
REMARK  584  A    between atoms: _1265  and  _1266
REMARK  585  A    between atoms: _1266  and  _1267
REMARK  586  A    between atoms: _1266  and  _1269
REMARK  587  A    between atoms: _1272  and  _1273
REMARK  588  A    between atoms: _1273  and  _1274
REMARK  589  A    between atoms: _1273  and  _1276
REMARK  590  A    between atoms: _1276  and  _1277
REMARK  591  A    between atoms: _1280  and  _1281
REMARK  592  A    between atoms: _1281  and  _1282
REMARK  593  A    between atoms: _1281  and  _1284
REMARK  594  A    between atoms: _1287  and  _1288
REMARK  595  A    between atoms: _1288  and  _1289
REMARK  596  A    between atoms: _1291  and  _1292
REMARK  597  A    between atoms: _1292  and  _1293
REMARK  598  A    between atoms: _1292  and  _1295
REMARK  599  A    between atoms: _1295  and  _1296
REMARK  600  A    between atoms: _1296  and  _1297
REMARK  601  A    between atoms: _1301  and  _1302
REMARK  602  A    between atoms: _1307  and  _1308
REMARK  603  A    between atoms: _1308  and  _1309
REMARK  604  A    between atoms: _1308  and  _1311
REMARK  605  A    between atoms: _1311  and  _1312
REMARK  606  A    between atoms: _1312  and  _1313
REMARK  607  A    between atoms: _1315  and  _1316
REMARK  608  A    between atoms: _1316  and  _1317
REMARK  609  A    between atoms: _1319  and  _1320
REMARK  610  A    between atoms: _1320  and  _1321
REMARK  611  A    between atoms: _1320  and  _1323
REMARK  612  A    between atoms: _1323  and  _1324
REMARK  613  A    between atoms: _1324  and  _1325
REMARK  614  A    between atoms: _1325  and  _1326
REMARK  615  A    between atoms: _1330  and  _1331
REMARK  616  A    between atoms: _1331  and  _1332
REMARK  617  A    between atoms: _1334  and  _1335
REMARK  618  A    between atoms: _1335  and  _1336
REMARK  619  A    between atoms: _1335  and  _1338
REMARK  620  A    between atoms: _1341  and  _1342
REMARK  621  A    between atoms: _1342  and  _1343
REMARK  622  A    between atoms: _1342  and  _1345
REMARK  623  A    between atoms: _1345  and  _1346
REMARK  624  A    between atoms: _1346  and  _1347
REMARK  625  A    between atoms: _1347  and  _1348
REMARK  626  A    between atoms: _1350  and  _1351
REMARK  627  A    between atoms: _1351  and  _1352
REMARK  628  A    between atoms: _1351  and  _1354
REMARK  629  A    between atoms: _1357  and  _1358
REMARK  630  A    between atoms: _1358  and  _1359
REMARK  631  A    between atoms: _1358  and  _1361
REMARK  632  A    between atoms: _1361  and  _1362
REMARK  633  A    between atoms: _1365  and  _1366
REMARK  634  A    between atoms: _1366  and  _1367
REMARK  635  A    between atoms: _1366  and  _1369
REMARK  636  A    between atoms: _1369  and  _1370
REMARK  637  A    between atoms: _1373  and  _1374
REMARK  638  A    between atoms: _1374  and  _1375
REMARK  639  A    between atoms: _1374  and  _1377
REMARK  640  A    between atoms: _1377  and  _1378
REMARK  641  A    between atoms: _1383  and  _1384
REMARK  642  A    between atoms: _1384  and  _1385
REMARK  643  A    between atoms: _1384  and  _1387
REMARK  644  A    between atoms: _1387  and  _1388
REMARK  645  A    between atoms: _1391  and  _1392
REMARK  646  A    between atoms: _1392  and  _1393
REMARK  647  A    between atoms: _1392  and  _1395
REMARK  648  A    between atoms: _1395  and  _1396
REMARK  649  A    between atoms: _1396  and  _1397
REMARK  650  A    between atoms: _1397  and  _1398
REMARK  651  A    between atoms: _1400  and  _1401
REMARK  652  A    between atoms: _1401  and  _1402
REMARK  653  A    between atoms: _1401  and  _1404
REMARK  654  A    between atoms: _1404  and  _1405
REMARK  655  A    between atoms: _1405  and  _1406
REMARK  656  A    between atoms: _1409  and  _1410
REMARK  657  A    between atoms: _1410  and  _1411
REMARK  658  A    between atoms: _1410  and  _1413
REMARK  659  A    between atoms: _1413  and  _1414
REMARK  660  A    between atoms: _1417  and  _1418
REMARK  661  A    between atoms: _1418  and  _1419
REMARK  662  A    between atoms: _1418  and  _1421
REMARK  663  A    between atoms: _1421  and  _1422
REMARK  664  A    between atoms: _1422  and  _1423
REMARK  665  A    between atoms: _1426  and  _1427
REMARK  666  A    between atoms: _1427  and  _1428
REMARK  667  A    between atoms: _1427  and  _1430
REMARK  668  A    between atoms: _1433  and  _1434
REMARK  669  A    between atoms: _1434  and  _1435
REMARK  670  A    between atoms: _1434  and  _1437
REMARK  671  A    between atoms: _1437  and  _1438
REMARK  672  A    between atoms: _1438  and  _1439
REMARK  673  A    between atoms: _1442  and  _1443
REMARK  674  A    between atoms: _1443  and  _1444
REMARK  675  A    between atoms: _1443  and  _1446
REMARK  676  A    between atoms: _1446  and  _1447
REMARK  677  A    between atoms: _1454  and  _1455
REMARK  678  A    between atoms: _1455  and  _1456
REMARK  679  A    between atoms: _1455  and  _1458
REMARK  680  A    between atoms: _1458  and  _1459
REMARK  681  A    between atoms: _1462  and  _1463
REMARK  682  A    between atoms: _1463  and  _1464
REMARK  683  A    between atoms: _1463  and  _1466
REMARK  684  A    between atoms: _1466  and  _1467
REMARK  685  A    between atoms: _1467  and  _1468
REMARK  686  A    between atoms: _1471  and  _1472
REMARK  687  A    between atoms: _1472  and  _1473
REMARK  688  A    between atoms: _1472  and  _1475
REMARK  689  A    between atoms: _1475  and  _1476
REMARK  690  A    between atoms: _1476  and  _1477
REMARK  691  A    between atoms: _1480  and  _1481
REMARK  692  A    between atoms: _1481  and  _1482
REMARK  693  A    between atoms: _1481  and  _1484
REMARK  694  A    between atoms: _1484  and  _1485
REMARK  695  A    between atoms: _1485  and  _1486
REMARK  696  A    between atoms: _1486  and  _1487
REMARK  697  A    between atoms: _1491  and  _1492
REMARK  698  A    between atoms: _1492  and  _1493
REMARK  699  A    between atoms: _1492  and  _1495
REMARK  700  A    between atoms: _1495  and  _1496
REMARK  701  A    between atoms: _1496  and  _1497
REMARK  702  A    between atoms: _1497  and  _1498
REMARK  703  A    between atoms: _1502  and  _1503
REMARK  704  A    between atoms: _1503  and  _1504
REMARK  705  A    between atoms: _1503  and  _1506
REMARK  706  A    between atoms: _1506  and  _1507
REMARK  707  A    between atoms: _1510  and  _1511
REMARK  708  A    between atoms: _1511  and  _1512
REMARK  709  A    between atoms: _1511  and  _1514
REMARK  710  A    between atoms: _1514  and  _1515
REMARK  711  A    between atoms: _1515  and  _1516
REMARK  712  A    between atoms: _1516  and  _1517
REMARK  713  A    between atoms: _1519  and  _1520
REMARK  714  A    between atoms: _1520  and  _1521
REMARK  715  A    between atoms: _1520  and  _1523
REMARK  716  A    between atoms: _1523  and  _1524
REMARK  717  A    between atoms: _1524  and  _1525
REMARK  718  A    between atoms: _1528  and  _1529
REMARK  719  A    between atoms: _1529  and  _1530
REMARK  720  A    between atoms: _1529  and  _1532
REMARK  721  A    between atoms: _1532  and  _1533
REMARK  722  A    between atoms: _1536  and  _1537
REMARK  723  A    between atoms: _1537  and  _1538
REMARK  724  A    between atoms: _1537  and  _1540
REMARK  725  A    between atoms: _1543  and  _1544
REMARK  726  A    between atoms: _1544  and  _1545
REMARK  727  A    between atoms: _1544  and  _1547
REMARK  728  A    between atoms: _1547  and  _1548
REMARK  729  A    between atoms: _1548  and  _1549
REMARK  730  A    between atoms: _1549  and  _1550
REMARK  731  A    between atoms: _1552  and  _1553
REMARK  732  A    between atoms: _1553  and  _1554
REMARK  733  A    between atoms: _1553  and  _1556
REMARK  734  A    between atoms: _1556  and  _1557
REMARK  735  A    between atoms: _1557  and  _1558
REMARK  736  A    between atoms: _1558  and  _1559
REMARK  737  A    between atoms: _1561  and  _1562
REMARK  738  A    between atoms: _1562  and  _1563
REMARK  739  A    between atoms: _1562  and  _1565
REMARK  740  A    between atoms: _1565  and  _1566
REMARK  741  A    between atoms: _1571  and  _1572
REMARK  742  A    between atoms: _1572  and  _1573
REMARK  743  A    between atoms: _1572  and  _1575
REMARK  744  A    between atoms: _1577  and  _1578
REMARK  745  A    between atoms: _1578  and  _1579
REMARK  746  A    between atoms: _1578  and  _1581
REMARK  747  A    between atoms: _1581  and  _1582
REMARK  748  A    between atoms: _1582  and  _1583
REMARK  749  A    between atoms: _1586  and  _1587
REMARK  750  A    between atoms: _1587  and  _1588
REMARK  751  A    between atoms: _1587  and  _1590
REMARK  752  A    between atoms: _1590  and  _1591
REMARK  753  A    between atoms: _1597  and  _1598
REMARK  754  A    between atoms: _1598  and  _1599
REMARK  755  A    between atoms: _1598  and  _1601
REMARK  756  A    between atoms: _1601  and  _1602
REMARK  757  A    between atoms: _1605  and  _1606
REMARK  758  A    between atoms: _1606  and  _1607
REMARK  759  A    between atoms: _1609  and  _1610
REMARK  760  A    between atoms: _1610  and  _1611
REMARK  761  A    between atoms: _1610  and  _1613
REMARK  762  A    between atoms: _1613  and  _1614
REMARK  763  A    between atoms: _1622  and  _1623
REMARK  764  A    between atoms: _1628  and  _1629
REMARK  765  A    between atoms: _1629  and  _1630
REMARK  766  A    between atoms: _1629  and  _1632
REMARK  767  A    between atoms: _1632  and  _1633
REMARK  768  A    between atoms: _1636  and  _1637
REMARK  769  A    between atoms: _1637  and  _1638
REMARK  770  A    between atoms: _1637  and  _1640
REMARK  771  A    between atoms: _1643  and  _1644
REMARK  772  A    between atoms: _1644  and  _1645
REMARK  773  A    between atoms: _1644  and  _1647
REMARK  774  A    between atoms: _1647  and  _1648
REMARK  775  A    between atoms: _1651  and  _1652
REMARK  776  A    between atoms: _1652  and  _1653
REMARK  777  A    between atoms: _1652  and  _1655
REMARK  778  A    between atoms: _1655  and  _1656
REMARK  779  A    between atoms: _1662  and  _1663
REMARK  780  A    between atoms: _1663  and  _1664
REMARK  781  A    between atoms: _1663  and  _1666
REMARK  782  A    between atoms: _1669  and  _1670
REMARK  783  A    between atoms: _1670  and  _1671
REMARK  784  A    between atoms: _1670  and  _1673
REMARK  785  A    between atoms: _1673  and  _1674
REMARK  786  A    between atoms: _1674  and  _1675
REMARK                            x       y       z     vdW  Elec       q    Type
REMARK                         _______ _______ _______ _____ _____    ______ ____
ROOT
ATOM      1  C   UNL     1      -2.746   6.347  16.040  0.00  0.00    +0.516 C 
ATOM      2  O   UNL     1      -2.125   5.222  16.475  0.00  0.00    -0.258 OA
ATOM      3  O   UNL     1      -3.316   6.047  14.778  0.00  0.00    -0.258 OA
ENDROOT
TORSDOF 0
REMARK  Name = /Users/mlugowska/PhD/ML_residence_time_prediction/protein_files/5J64_protein.pdb
REMARK  786 active torsions:
REMARK  status: ('A' for Active; 'I' for Inactive)
REMARK    1  A    between atoms: _2  and  _3
REMARK    2  A    between atoms: _2  and  _5
REMARK    3  A    between atoms: _5  and  _6
REMARK    4  A    between atoms: _6  and  _7
REMARK    5  A    between atoms: _10  and  _11
REMARK    6  A    between atoms: _11  and  _12
REMARK    7  A    between atoms: _11  and  _14
REMARK    8  A    between atoms: _17  and  _18
REMARK    9  A    between atoms: _18  and  _19
REMARK   10  A    between atoms: _18  and  _21
REMARK   11  A    between atoms: _21  and  _22
REMARK   12  A    between atoms: _22  and  _23
REMARK   13  A    between atoms: _26  and  _27
REMARK   14  A    between atoms: _27  and  _28
REMARK   15  A    between atoms: _27  and  _30
REMARK   16  A    between atoms: _33  and  _34
REMARK   17  A    between atoms: _34  and  _35
REMARK   18  A    between atoms: _34  and  _37
REMARK   19  A    between atoms: _37  and  _38
REMARK   20  A    between atoms: _44  and  _45
REMARK   21  A    between atoms: _45  and  _46
REMARK   22  A    between atoms: _49  and  _50
REMARK   23  A    between atoms: _50  and  _51
REMARK   24  A    between atoms: _50  and  _53
REMARK   25  A    between atoms: _53  and  _54
REMARK   26  A    between atoms: _60  and  _61
REMARK   27  A    between atoms: _61  and  _62
REMARK   28  A    between atoms: _61  and  _64
REMARK   29  A    between atoms: _64  and  _65
REMARK   30  A    between atoms: _65  and  _66
REMARK   31  A    between atoms: _69  and  _70
REMARK   32  A    between atoms: _70  and  _71
REMARK   33  A    between atoms: _74  and  _75
REMARK   34  A    between atoms: _75  and  _76
REMARK   35  A    between atoms: _75  and  _78
REMARK   36  A    between atoms: _78  and  _79
REMARK   37  A    between atoms: _79  and  _80
REMARK   38  A    between atoms: _83  and  _84
REMARK   39  A    between atoms: _84  and  _85
REMARK   40  A    between atoms: _84  and  _87
REMARK   41  A    between atoms: _87  and  _88
REMARK   42  A    between atoms: _91  and  _92
REMARK   43  A    between atoms: _92  and  _93
REMARK   44  A    between atoms: _96  and  _97
REMARK   45  A    between atoms: _97  and  _98
REMARK   46  A    between atoms: _97  and  _100
REMARK   47  A    between atoms: _100  and  _101
REMARK   48  A    between atoms: _101  and  _102
REMARK   49  A    between atoms: _105  and  _106
REMARK   50  A    between atoms: _106  and  _107
REMARK   51  A    between atoms: _106  and  _109
REMARK   52  A    between atoms: _109  and  _110
REMARK   53  A    between atoms: _113  and  _114
REMARK   54  A    between atoms: _114  and  _115
REMARK   55  A    between atoms: _114  and  _117
REMARK   56  A    between atoms: _117  and  _118
REMARK   57  A    between atoms: _118  and  _119
REMARK   58  A    between atoms: _121  and  _122
REMARK   59  A    between atoms: _122  and  _123
REMARK   60  A    between atoms: _122  and  _125
REMARK   61  A    between atoms: _127  and  _128
REMARK   62  A    between atoms: _128  and  _129
REMARK   63  A    between atoms: _128  and  _131
REMARK   64  A    between atoms: _131  and  _132
REMARK   65  A    between atoms: _135  and  _136
REMARK   66  A    between atoms: _136  and  _137
REMARK   67  A    between atoms: _136  and  _139
REMARK   68  A    between atoms: _139  and  _140
REMARK   69  A    between atoms: _143  and  _144
REMARK   70  A    between atoms: _144  and  _145
REMARK   71  A    between atoms: _144  and  _147
REMARK   72  A    between atoms: _147  and  _148
REMARK   73  A    between atoms: _151  and  _152
REMARK   74  A    between atoms: _152  and  _153
REMARK   75  A    between atoms: _152  and  _155
REMARK   76  A    between atoms: _155  and  _156
REMARK   77  A    between atoms: _159  and  _160
REMARK   78  A    between atoms: _160  and  _161
REMARK   79  A    between atoms: _160  and  _163
REMARK   80  A    between atoms: _166  and  _167
REMARK   81  A    between atoms: _167  and  _170
REMARK   82  A    between atoms: _170  and  _171
REMARK   83  A    between atoms: _181  and  _183
REMARK   84  A    between atoms: _183  and  _184
REMARK   85  A    between atoms: _189  and  _194
REMARK   86  A    between atoms: _192  and  _195
REMARK   87  A    between atoms: _193  and  _194
REMARK   88  A    between atoms: _195  and  _196
REMARK   89  A    between atoms: _201  and  _202
REMARK   90  A    between atoms: _202  and  _203
REMARK   91  A    between atoms: _202  and  _205
REMARK   92  A    between atoms: _207  and  _208
REMARK   93  A    between atoms: _208  and  _209
REMARK   94  A    between atoms: _208  and  _211
REMARK   95  A    between atoms: _211  and  _212
REMARK   96  A    between atoms: _215  and  _216
REMARK   97  A    between atoms: _216  and  _217
REMARK   98  A    between atoms: _216  and  _219
REMARK   99  A    between atoms: _219  and  _220
REMARK  100  A    between atoms: _220  and  _221
REMARK  101  A    between atoms: _221  and  _222
REMARK  102  A    between atoms: _224  and  _225
REMARK  103  A    between atoms: _225  and  _226
REMARK  104  A    between atoms: _225  and  _228
REMARK  105  A    between atoms: _228  and  _229
REMARK  106  A    between atoms: _229  and  _230
REMARK  107  A    between atoms: _233  and  _234
REMARK  108  A    between atoms: _234  and  _235
REMARK  109  A    between atoms: _234  and  _237
REMARK  110  A    between atoms: _237  and  _238
REMARK  111  A    between atoms: _241  and  _242
REMARK  112  A    between atoms: _242  and  _243
REMARK  113  A    between atoms: _242  and  _245
REMARK  114  A    between atoms: _245  and  _246
REMARK  115  A    between atoms: _252  and  _253
REMARK  116  A    between atoms: _253  and  _254
REMARK  117  A    between atoms: _253  and  _256
REMARK  118  A    between atoms: _256  and  _257
REMARK  119  A    between atoms: _260  and  _261
REMARK  120  A    between atoms: _261  and  _262
REMARK  121  A    between atoms: _261  and  _264
REMARK  122  A    between atoms: _264  and  _265
REMARK  123  A    between atoms: _265  and  _266
REMARK  124  A    between atoms: _266  and  _267
REMARK  125  A    between atoms: _271  and  _272
REMARK  126  A    between atoms: _272  and  _273
REMARK  127  A    between atoms: _272  and  _275
REMARK  128  A    between atoms: _275  and  _276
REMARK  129  A    between atoms: _276  and  _277
REMARK  130  A    between atoms: _280  and  _281
REMARK  131  A    between atoms: _281  and  _282
REMARK  132  A    between atoms: _281  and  _284
REMARK  133  A    between atoms: _284  and  _285
REMARK  134  A    between atoms: _288  and  _289
REMARK  135  A    between atoms: _289  and  _292
REMARK  136  A    between atoms: _292  and  _293
REMARK  137  A    between atoms: _309  and  _310
REMARK  138  A    between atoms: _309  and  _312
REMARK  139  A    between atoms: _312  and  _313
REMARK  140  A    between atoms: _316  and  _317
REMARK  141  A    between atoms: _317  and  _318
REMARK  142  A    between atoms: _317  and  _320
REMARK  143  A    between atoms: _322  and  _323
REMARK  144  A    between atoms: _323  and  _324
REMARK  145  A    between atoms: _323  and  _326
REMARK  146  A    between atoms: _328  and  _329
REMARK  147  A    between atoms: _329  and  _330
REMARK  148  A    between atoms: _329  and  _332
REMARK  149  A    between atoms: _332  and  _333
REMARK  150  A    between atoms: _336  and  _337
REMARK  151  A    between atoms: _337  and  _338
REMARK  152  A    between atoms: _341  and  _342
REMARK  153  A    between atoms: _342  and  _343
REMARK  154  A    between atoms: _342  and  _345
REMARK  155  A    between atoms: _345  and  _346
REMARK  156  A    between atoms: _349  and  _350
REMARK  157  A    between atoms: _350  and  _351
REMARK  158  A    between atoms: _350  and  _353
REMARK  159  A    between atoms: _353  and  _354
REMARK  160  A    between atoms: _357  and  _358
REMARK  161  A    between atoms: _358  and  _359
REMARK  162  A    between atoms: _358  and  _361
REMARK  163  A    between atoms: _361  and  _362
REMARK  164  A    between atoms: _362  and  _363
REMARK  165  A    between atoms: _363  and  _364
REMARK  166  A    between atoms: _366  and  _367
REMARK  167  A    between atoms: _367  and  _368
REMARK  168  A    between atoms: _367  and  _370
REMARK  169  A    between atoms: _370  and  _371
REMARK  170  A    between atoms: _374  and  _375
REMARK  171  A    between atoms: _375  and  _376
REMARK  172  A    between atoms: _375  and  _378
REMARK  173  A    between atoms: _378  and  _379
REMARK  174  A    between atoms: _379  and  _380
REMARK  175  A    between atoms: _380  and  _381
REMARK  176  A    between atoms: _385  and  _386
REMARK  177  A    between atoms: _386  and  _387
REMARK  178  A    between atoms: _386  and  _389
REMARK  179  A    between atoms: _389  and  _390
REMARK  180  A    between atoms: _397  and  _398
REMARK  181  A    between atoms: _398  and  _399
REMARK  182  A    between atoms: _398  and  _401
REMARK  183  A    between atoms: _401  and  _402
REMARK  184  A    between atoms: _402  and  _403
REMARK  185  A    between atoms: _406  and  _407
REMARK  186  A    between atoms: _407  and  _408
REMARK  187  A    between atoms: _407  and  _410
REMARK  188  A    between atoms: _412  and  _413
REMARK  189  A    between atoms: _413  and  _414
REMARK  190  A    between atoms: _413  and  _416
REMARK  191  A    between atoms: _416  and  _417
REMARK  192  A    between atoms: _420  and  _421
REMARK  193  A    between atoms: _421  and  _422
REMARK  194  A    between atoms: _421  and  _424
REMARK  195  A    between atoms: _427  and  _428
REMARK  196  A    between atoms: _428  and  _429
REMARK  197  A    between atoms: _428  and  _431
REMARK  198  A    between atoms: _431  and  _432
REMARK  199  A    between atoms: _436  and  _437
REMARK  200  A    between atoms: _442  and  _443
REMARK  201  A    between atoms: _443  and  _444
REMARK  202  A    between atoms: _443  and  _446
REMARK  203  A    between atoms: _448  and  _449
REMARK  204  A    between atoms: _449  and  _450
REMARK  205  A    between atoms: _449  and  _452
REMARK  206  A    between atoms: _452  and  _453
REMARK  207  A    between atoms: _453  and  _454
REMARK  208  A    between atoms: _454  and  _455
REMARK  209  A    between atoms: _457  and  _458
REMARK  210  A    between atoms: _458  and  _459
REMARK  211  A    between atoms: _458  and  _461
REMARK  212  A    between atoms: _461  and  _462
REMARK  213  A    between atoms: _465  and  _466
REMARK  214  A    between atoms: _466  and  _467
REMARK  215  A    between atoms: _466  and  _469
REMARK  216  A    between atoms: _469  and  _470
REMARK  217  A    between atoms: _473  and  _474
REMARK  218  A    between atoms: _474  and  _475
REMARK  219  A    between atoms: _474  and  _477
REMARK  220  A    between atoms: _479  and  _480
REMARK  221  A    between atoms: _480  and  _481
REMARK  222  A    between atoms: _483  and  _484
REMARK  223  A    between atoms: _484  and  _485
REMARK  224  A    between atoms: _484  and  _487
REMARK  225  A    between atoms: _487  and  _488
REMARK  226  A    between atoms: _488  and  _489
REMARK  227  A    between atoms: _489  and  _490
REMARK  228  A    between atoms: _492  and  _493
REMARK  229  A    between atoms: _493  and  _494
REMARK  230  A    between atoms: _493  and  _496
REMARK  231  A    between atoms: _496  and  _497
REMARK  232  A    between atoms: _497  and  _498
REMARK  233  A    between atoms: _501  and  _502
REMARK  234  A    between atoms: _502  and  _503
REMARK  235  A    between atoms: _502  and  _505
REMARK  236  A    between atoms: _505  and  _506
REMARK  237  A    between atoms: _509  and  _510
REMARK  238  A    between atoms: _510  and  _511
REMARK  239  A    between atoms: _510  and  _513
REMARK  240  A    between atoms: _513  and  _514
REMARK  241  A    between atoms: _519  and  _520
REMARK  242  A    between atoms: _520  and  _521
REMARK  243  A    between atoms: _520  and  _523
REMARK  244  A    between atoms: _523  and  _524
REMARK  245  A    between atoms: _527  and  _528
REMARK  246  A    between atoms: _528  and  _529
REMARK  247  A    between atoms: _528  and  _531
REMARK  248  A    between atoms: _531  and  _532
REMARK  249  A    between atoms: _535  and  _536
REMARK  250  A    between atoms: _536  and  _537
REMARK  251  A    between atoms: _536  and  _539
REMARK  252  A    between atoms: _539  and  _540
REMARK  253  A    between atoms: _543  and  _544
REMARK  254  A    between atoms: _544  and  _545
REMARK  255  A    between atoms: _544  and  _547
REMARK  256  A    between atoms: _547  and  _548
REMARK  257  A    between atoms: _552  and  _553
REMARK  258  A    between atoms: _558  and  _559
REMARK  259  A    between atoms: _559  and  _560
REMARK  260  A    between atoms: _559  and  _562
REMARK  261  A    between atoms: _562  and  _563
REMARK  262  A    between atoms: _566  and  _567
REMARK  263  A    between atoms: _567  and  _568
REMARK  264  A    between atoms: _567  and  _570
REMARK  265  A    between atoms: _570  and  _571
REMARK  266  A    between atoms: _571  and  _572
REMARK  267  A    between atoms: _572  and  _573
REMARK  268  A    between atoms: _575  and  _576
REMARK  269  A    between atoms: _576  and  _577
REMARK  270  A    between atoms: _576  and  _579
REMARK  271  A    between atoms: _579  and  _580
REMARK  272  A    between atoms: _580  and  _581
REMARK  273  A    between atoms: _584  and  _585
REMARK  274  A    between atoms: _585  and  _586
REMARK  275  A    between atoms: _585  and  _588
REMARK  276  A    between atoms: _588  and  _589
REMARK  277  A    between atoms: _592  and  _593
REMARK  278  A    between atoms: _593  and  _594
REMARK  279  A    between atoms: _593  and  _596
REMARK  280  A    between atoms: _596  and  _597
REMARK  281  A    between atoms: _597  and  _598
REMARK  282  A    between atoms: _598  and  _599
REMARK  283  A    between atoms: _603  and  _604
REMARK  284  A    between atoms: _604  and  _605
REMARK  285  A    between atoms: _604  and  _607
REMARK  286  A    between atoms: _610  and  _611
REMARK  287  A    between atoms: _611  and  _612
REMARK  288  A    between atoms: _611  and  _614
REMARK  289  A    between atoms: _614  and  _615
REMARK  290  A    between atoms: _618  and  _619
REMARK  291  A    between atoms: _619  and  _620
REMARK  292  A    between atoms: _619  and  _622
REMARK  293  A    between atoms: _625  and  _626
REMARK  294  A    between atoms: _626  and  _627
REMARK  295  A    between atoms: _626  and  _629
REMARK  296  A    between atoms: _629  and  _630
REMARK  297  A    between atoms: _633  and  _634
REMARK  298  A    between atoms: _634  and  _635
REMARK  299  A    between atoms: _634  and  _637
REMARK  300  A    between atoms: _640  and  _641
REMARK  301  A    between atoms: _641  and  _642
REMARK  302  A    between atoms: _641  and  _644
REMARK  303  A    between atoms: _644  and  _645
REMARK  304  A    between atoms: _648  and  _649
REMARK  305  A    between atoms: _649  and  _650
REMARK  306  A    between atoms: _649  and  _652
REMARK  307  A    between atoms: _655  and  _656
REMARK  308  A    between atoms: _656  and  _657
REMARK  309  A    between atoms: _659  and  _660
REMARK  310  A    between atoms: _660  and  _661
REMARK  311  A    between atoms: _660  and  _663
REMARK  312  A    between atoms: _663  and  _664
REMARK  313  A    between atoms: _667  and  _668
REMARK  314  A    between atoms: _668  and  _669
REMARK  315  A    between atoms: _671  and  _672
REMARK  316  A    between atoms: _672  and  _673
REMARK  317  A    between atoms: _672  and  _675
REMARK  318  A    between atoms: _675  and  _676
REMARK  319  A    between atoms: _676  and  _677
REMARK  320  A    between atoms: _679  and  _680
REMARK  321  A    between atoms: _680  and  _681
REMARK  322  A    between atoms: _680  and  _683
REMARK  323  A    between atoms: _686  and  _687
REMARK  324  A    between atoms: _687  and  _688
REMARK  325  A    between atoms: _687  and  _690
REMARK  326  A    between atoms: _690  and  _691
REMARK  327  A    between atoms: _691  and  _692
REMARK  328  A    between atoms: _692  and  _693
REMARK  329  A    between atoms: _695  and  _696
REMARK  330  A    between atoms: _696  and  _697
REMARK  331  A    between atoms: _700  and  _701
REMARK  332  A    between atoms: _701  and  _702
REMARK  333  A    between atoms: _701  and  _704
REMARK  334  A    between atoms: _704  and  _705
REMARK  335  A    between atoms: _708  and  _709
REMARK  336  A    between atoms: _709  and  _710
REMARK  337  A    between atoms: _709  and  _712
REMARK  338  A    between atoms: _712  and  _713
REMARK  339  A    between atoms: _716  and  _717
REMARK  340  A    between atoms: _717  and  _720
REMARK  341  A    between atoms: _720  and  _721
REMARK  342  A    between atoms: _733  and  _734
REMARK  343  A    between atoms: _733  and  _735
REMARK  344  A    between atoms: _741  and  _744
REMARK  345  A    between atoms: _744  and  _745
REMARK  346  A    between atoms: _758  and  _759
REMARK  347  A    between atoms: _758  and  _761
REMARK  348  A    between atoms: _759  and  _760
REMARK  349  A    between atoms: _765  and  _766
REMARK  350  A    between atoms: _768  and  _769
REMARK  351  A    between atoms: _769  and  _770
REMARK  352  A    between atoms: _769  and  _772
REMARK  353  A    between atoms: _775  and  _776
REMARK  354  A    between atoms: _776  and  _777
REMARK  355  A    between atoms: _776  and  _779
REMARK  356  A    between atoms: _779  and  _780
REMARK  357  A    between atoms: _783  and  _784
REMARK  358  A    between atoms: _784  and  _785
REMARK  359  A    between atoms: _788  and  _789
REMARK  360  A    between atoms: _789  and  _790
REMARK  361  A    between atoms: _789  and  _792
REMARK  362  A    between atoms: _792  and  _793
REMARK  363  A    between atoms: _793  and  _794
REMARK  364  A    between atoms: _794  and  _795
REMARK  365  A    between atoms: _797  and  _798
REMARK  366  A    between atoms: _798  and  _799
REMARK  367  A    between atoms: _798  and  _801
REMARK  368  A    between atoms: _803  and  _804
REMARK  369  A    between atoms: _804  and  _805
REMARK  370  A    between atoms: _807  and  _808
REMARK  371  A    between atoms: _808  and  _809
REMARK  372  A    between atoms: _808  and  _811
REMARK  373  A    between atoms: _814  and  _815
REMARK  374  A    between atoms: _815  and  _816
REMARK  375  A    between atoms: _815  and  _818
REMARK  376  A    between atoms: _818  and  _819
REMARK  377  A    between atoms: _819  and  _820
REMARK  378  A    between atoms: _820  and  _821
REMARK  379  A    between atoms: _823  and  _824
REMARK  380  A    between atoms: _824  and  _825
REMARK  381  A    between atoms: _828  and  _829
REMARK  382  A    between atoms: _829  and  _830
REMARK  383  A    between atoms: _829  and  _832
REMARK  384  A    between atoms: _832  and  _833
REMARK  385  A    between atoms: _839  and  _840
REMARK  386  A    between atoms: _840  and  _841
REMARK  387  A    between atoms: _840  and  _843
REMARK  388  A    between atoms: _843  and  _844
REMARK  389  A    between atoms: _844  and  _845
REMARK  390  A    between atoms: _847  and  _848
REMARK  391  A    between atoms: _848  and  _849
REMARK  392  A    between atoms: _848  and  _851
REMARK  393  A    between atoms: _851  and  _852
REMARK  394  A    between atoms: _852  and  _853
REMARK  395  A    between atoms: _856  and  _857
REMARK  396  A    between atoms: _857  and  _858
REMARK  397  A    between atoms: _861  and  _862
REMARK  398  A    between atoms: _862  and  _863
REMARK  399  A    between atoms: _862  and  _865
REMARK  400  A    between atoms: _865  and  _866
REMARK  401  A    between atoms: _869  and  _870
REMARK  402  A    between atoms: _870  and  _871
REMARK  403  A    between atoms: _870  and  _873
REMARK  404  A    between atoms: _873  and  _874
REMARK  405  A    between atoms: _874  and  _875
REMARK  406  A    between atoms: _878  and  _879
REMARK  407  A    between atoms: _879  and  _880
REMARK  408  A    between atoms: _883  and  _884
REMARK  409  A    between atoms: _884  and  _885
REMARK  410  A    between atoms: _887  and  _888
REMARK  411  A    between atoms: _888  and  _889
REMARK  412  A    between atoms: _892  and  _893
REMARK  413  A    between atoms: _893  and  _894
REMARK  414  A    between atoms: _893  and  _896
REMARK  415  A    between atoms: _896  and  _897
REMARK  416  A    between atoms: _900  and  _901
REMARK  417  A    between atoms: _901  and  _902
REMARK  418  A    between atoms: _901  and  _904
REMARK  419  A    between atoms: _904  and  _905
REMARK  420  A    between atoms: _908  and  _909
REMARK  421  A    between atoms: _909  and  _910
REMARK  422  A    between atoms: _909  and  _912
REMARK  423  A    between atoms: _914  and  _915
REMARK  424  A    between atoms: _915  and  _916
REMARK  425  A    between atoms: _915  and  _918
REMARK  426  A    between atoms: _918  and  _919
REMARK  427  A    between atoms: _919  and  _920
REMARK  428  A    between atoms: _922  and  _923
REMARK  429  A    between atoms: _923  and  _924
REMARK  430  A    between atoms: _923  and  _926
REMARK  431  A    between atoms: _926  and  _927
REMARK  432  A    between atoms: _930  and  _931
REMARK  433  A    between atoms: _931  and  _932
REMARK  434  A    between atoms: _934  and  _935
REMARK  435  A    between atoms: _935  and  _936
REMARK  436  A    between atoms: _935  and  _938
REMARK  437  A    between atoms: _938  and  _939
REMARK  438  A    between atoms: _939  and  _940
REMARK  439  A    between atoms: _943  and  _944
REMARK  440  A    between atoms: _944  and  _945
REMARK  441  A    between atoms: _944  and  _947
REMARK  442  A    between atoms: _947  and  _948
REMARK  443  A    between atoms: _954  and  _955
REMARK  444  A    between atoms: _955  and  _956
REMARK  445  A    between atoms: _958  and  _959
REMARK  446  A    between atoms: _959  and  _960
REMARK  447  A    between atoms: _959  and  _962
REMARK  448  A    between atoms: _965  and  _966
REMARK  449  A    between atoms: _966  and  _967
REMARK  450  A    between atoms: _969  and  _970
REMARK  451  A    between atoms: _970  and  _971
REMARK  452  A    between atoms: _970  and  _973
REMARK  453  A    between atoms: _973  and  _974
REMARK  454  A    between atoms: _980  and  _981
REMARK  455  A    between atoms: _981  and  _982
REMARK  456  A    between atoms: _981  and  _984
REMARK  457  A    between atoms: _984  and  _985
REMARK  458  A    between atoms: _992  and  _993
REMARK  459  A    between atoms: _993  and  _994
REMARK  460  A    between atoms: _993  and  _996
REMARK  461  A    between atoms: _998  and  _999
REMARK  462  A    between atoms: _999  and  _1000
REMARK  463  A    between atoms: _1003  and  _1004
REMARK  464  A    between atoms: _1004  and  _1005
REMARK  465  A    between atoms: _1004  and  _1007
REMARK  466  A    between atoms: _1007  and  _1008
REMARK  467  A    between atoms: _1015  and  _1016
REMARK  468  A    between atoms: _1016  and  _1017
REMARK  469  A    between atoms: _1016  and  _1019
REMARK  470  A    between atoms: _1019  and  _1020
REMARK  471  A    between atoms: _1023  and  _1024
REMARK  472  A    between atoms: _1024  and  _1025
REMARK  473  A    between atoms: _1024  and  _1027
REMARK  474  A    between atoms: _1030  and  _1031
REMARK  475  A    between atoms: _1031  and  _1032
REMARK  476  A    between atoms: _1035  and  _1036
REMARK  477  A    between atoms: _1036  and  _1037
REMARK  478  A    between atoms: _1036  and  _1039
REMARK  479  A    between atoms: _1039  and  _1040
REMARK  480  A    between atoms: _1040  and  _1041
REMARK  481  A    between atoms: _1044  and  _1045
REMARK  482  A    between atoms: _1045  and  _1046
REMARK  483  A    between atoms: _1045  and  _1048
REMARK  484  A    between atoms: _1048  and  _1049
REMARK  485  A    between atoms: _1049  and  _1050
REMARK  486  A    between atoms: _1050  and  _1051
REMARK  487  A    between atoms: _1053  and  _1054
REMARK  488  A    between atoms: _1054  and  _1055
REMARK  489  A    between atoms: _1054  and  _1057
REMARK  490  A    between atoms: _1060  and  _1061
REMARK  491  A    between atoms: _1061  and  _1062
REMARK  492  A    between atoms: _1061  and  _1064
REMARK  493  A    between atoms: _1067  and  _1068
REMARK  494  A    between atoms: _1068  and  _1069
REMARK  495  A    between atoms: _1068  and  _1071
REMARK  496  A    between atoms: _1074  and  _1075
REMARK  497  A    between atoms: _1075  and  _1076
REMARK  498  A    between atoms: _1075  and  _1078
REMARK  499  A    between atoms: _1078  and  _1079
REMARK  500  A    between atoms: _1082  and  _1083
REMARK  501  A    between atoms: _1083  and  _1084
REMARK  502  A    between atoms: _1083  and  _1086
REMARK  503  A    between atoms: _1089  and  _1090
REMARK  504  A    between atoms: _1090  and  _1091
REMARK  505  A    between atoms: _1090  and  _1093
REMARK  506  A    between atoms: _1093  and  _1094
REMARK  507  A    between atoms: _1094  and  _1095
REMARK  508  A    between atoms: _1095  and  _1096
REMARK  509  A    between atoms: _1098  and  _1099
REMARK  510  A    between atoms: _1099  and  _1100
REMARK  511  A    between atoms: _1099  and  _1102
REMARK  512  A    between atoms: _1102  and  _1103
REMARK  513  A    between atoms: _1108  and  _1109
REMARK  514  A    between atoms: _1109  and  _1110
REMARK  515  A    between atoms: _1109  and  _1112
REMARK  516  A    between atoms: _1112  and  _1113
REMARK  517  A    between atoms: _1116  and  _1117
REMARK  518  A    between atoms: _1117  and  _1118
REMARK  519  A    between atoms: _1117  and  _1120
REMARK  520  A    between atoms: _1120  and  _1121
REMARK  521  A    between atoms: _1124  and  _1125
REMARK  522  A    between atoms: _1125  and  _1126
REMARK  523  A    between atoms: _1125  and  _1128
REMARK  524  A    between atoms: _1128  and  _1129
REMARK  525  A    between atoms: _1132  and  _1133
REMARK  526  A    between atoms: _1133  and  _1134
REMARK  527  A    between atoms: _1133  and  _1136
REMARK  528  A    between atoms: _1136  and  _1137
REMARK  529  A    between atoms: _1137  and  _1138
REMARK  530  A    between atoms: _1141  and  _1142
REMARK  531  A    between atoms: _1142  and  _1143
REMARK  532  A    between atoms: _1142  and  _1145
REMARK  533  A    between atoms: _1145  and  _1146
REMARK  534  A    between atoms: _1146  and  _1147
REMARK  535  A    between atoms: _1150  and  _1151
REMARK  536  A    between atoms: _1151  and  _1152
REMARK  537  A    between atoms: _1151  and  _1154
REMARK  538  A    between atoms: _1154  and  _1155
REMARK  539  A    between atoms: _1162  and  _1163
REMARK  540  A    between atoms: _1163  and  _1164
REMARK  541  A    between atoms: _1167  and  _1168
REMARK  542  A    between atoms: _1168  and  _1169
REMARK  543  A    between atoms: _1168  and  _1171
REMARK  544  A    between atoms: _1171  and  _1172
REMARK  545  A    between atoms: _1181  and  _1182
REMARK  546  A    between atoms: _1182  and  _1183
REMARK  547  A    between atoms: _1182  and  _1185
REMARK  548  A    between atoms: _1185  and  _1186
REMARK  549  A    between atoms: _1186  and  _1187
REMARK  550  A    between atoms: _1190  and  _1191
REMARK  551  A    between atoms: _1191  and  _1192
REMARK  552  A    between atoms: _1191  and  _1194
REMARK  553  A    between atoms: _1196  and  _1197
REMARK  554  A    between atoms: _1197  and  _1198
REMARK  555  A    between atoms: _1197  and  _1200
REMARK  556  A    between atoms: _1202  and  _1203
REMARK  557  A    between atoms: _1203  and  _1204
REMARK  558  A    between atoms: _1207  and  _1208
REMARK  559  A    between atoms: _1208  and  _1209
REMARK  560  A    between atoms: _1211  and  _1212
REMARK  561  A    between atoms: _1212  and  _1213
REMARK  562  A    between atoms: _1215  and  _1216
REMARK  563  A    between atoms: _1216  and  _1217
REMARK  564  A    between atoms: _1216  and  _1219
REMARK  565  A    between atoms: _1221  and  _1222
REMARK  566  A    between atoms: _1222  and  _1223
REMARK  567  A    between atoms: _1222  and  _1225
REMARK  568  A    between atoms: _1225  and  _1226
REMARK  569  A    between atoms: _1232  and  _1233
REMARK  570  A    between atoms: _1233  and  _1234
REMARK  571  A    between atoms: _1233  and  _1236
REMARK  572  A    between atoms: _1239  and  _1240
REMARK  573  A    between atoms: _1240  and  _1241
REMARK  574  A    between atoms: _1240  and  _1243
REMARK  575  A    between atoms: _1247  and  _1249
REMARK  576  A    between atoms: _1247  and  _1252
REMARK  577  A    between atoms: _1251  and  _1252
REMARK  578  A    between atoms: _1251  and  _1254
REMARK  579  A    between atoms: _1253  and  _1254
REMARK  580  A    between atoms: _1253  and  _1256
REMARK  581  A    between atoms: _1254  and  _1255
REMARK  582  A    between atoms: _1255  and  _1257
REMARK  583  A    between atoms: _1256  and  _1258
REMARK  584  A    between atoms: _1265  and  _1266
REMARK  585  A    between atoms: _1266  and  _1267
REMARK  586  A    between atoms: _1266  and  _1269
REMARK  587  A    between atoms: _1272  and  _1273
REMARK  588  A    between atoms: _1273  and  _1274
REMARK  589  A    between atoms: _1273  and  _1276
REMARK  590  A    between atoms: _1276  and  _1277
REMARK  591  A    between atoms: _1280  and  _1281
REMARK  592  A    between atoms: _1281  and  _1282
REMARK  593  A    between atoms: _1281  and  _1284
REMARK  594  A    between atoms: _1287  and  _1288
REMARK  595  A    between atoms: _1288  and  _1289
REMARK  596  A    between atoms: _1291  and  _1292
REMARK  597  A    between atoms: _1292  and  _1293
REMARK  598  A    between atoms: _1292  and  _1295
REMARK  599  A    between atoms: _1295  and  _1296
REMARK  600  A    between atoms: _1296  and  _1297
REMARK  601  A    between atoms: _1301  and  _1302
REMARK  602  A    between atoms: _1307  and  _1308
REMARK  603  A    between atoms: _1308  and  _1309
REMARK  604  A    between atoms: _1308  and  _1311
REMARK  605  A    between atoms: _1311  and  _1312
REMARK  606  A    between atoms: _1312  and  _1313
REMARK  607  A    between atoms: _1315  and  _1316
REMARK  608  A    between atoms: _1316  and  _1317
REMARK  609  A    between atoms: _1319  and  _1320
REMARK  610  A    between atoms: _1320  and  _1321
REMARK  611  A    between atoms: _1320  and  _1323
REMARK  612  A    between atoms: _1323  and  _1324
REMARK  613  A    between atoms: _1324  and  _1325
REMARK  614  A    between atoms: _1325  and  _1326
REMARK  615  A    between atoms: _1330  and  _1331
REMARK  616  A    between atoms: _1331  and  _1332
REMARK  617  A    between atoms: _1334  and  _1335
REMARK  618  A    between atoms: _1335  and  _1336
REMARK  619  A    between atoms: _1335  and  _1338
REMARK  620  A    between atoms: _1341  and  _1342
REMARK  621  A    between atoms: _1342  and  _1343
REMARK  622  A    between atoms: _1342  and  _1345
REMARK  623  A    between atoms: _1345  and  _1346
REMARK  624  A    between atoms: _1346  and  _1347
REMARK  625  A    between atoms: _1347  and  _1348
REMARK  626  A    between atoms: _1350  and  _1351
REMARK  627  A    between atoms: _1351  and  _1352
REMARK  628  A    between atoms: _1351  and  _1354
REMARK  629  A    between atoms: _1357  and  _1358
REMARK  630  A    between atoms: _1358  and  _1359
REMARK  631  A    between atoms: _1358  and  _1361
REMARK  632  A    between atoms: _1361  and  _1362
REMARK  633  A    between atoms: _1365  and  _1366
REMARK  634  A    between atoms: _1366  and  _1367
REMARK  635  A    between atoms: _1366  and  _1369
REMARK  636  A    between atoms: _1369  and  _1370
REMARK  637  A    between atoms: _1373  and  _1374
REMARK  638  A    between atoms: _1374  and  _1375
REMARK  639  A    between atoms: _1374  and  _1377
REMARK  640  A    between atoms: _1377  and  _1378
REMARK  641  A    between atoms: _1383  and  _1384
REMARK  642  A    between atoms: _1384  and  _1385
REMARK  643  A    between atoms: _1384  and  _1387
REMARK  644  A    between atoms: _1387  and  _1388
REMARK  645  A    between atoms: _1391  and  _1392
REMARK  646  A    between atoms: _1392  and  _1393
REMARK  647  A    between atoms: _1392  and  _1395
REMARK  648  A    between atoms: _1395  and  _1396
REMARK  649  A    between atoms: _1396  and  _1397
REMARK  650  A    between atoms: _1397  and  _1398
REMARK  651  A    between atoms: _1400  and  _1401
REMARK  652  A    between atoms: _1401  and  _1402
REMARK  653  A    between atoms: _1401  and  _1404
REMARK  654  A    between atoms: _1404  and  _1405
REMARK  655  A    between atoms: _1405  and  _1406
REMARK  656  A    between atoms: _1409  and  _1410
REMARK  657  A    between atoms: _1410  and  _1411
REMARK  658  A    between atoms: _1410  and  _1413
REMARK  659  A    between atoms: _1413  and  _1414
REMARK  660  A    between atoms: _1417  and  _1418
REMARK  661  A    between atoms: _1418  and  _1419
REMARK  662  A    between atoms: _1418  and  _1421
REMARK  663  A    between atoms: _1421  and  _1422
REMARK  664  A    between atoms: _1422  and  _1423
REMARK  665  A    between atoms: _1426  and  _1427
REMARK  666  A    between atoms: _1427  and  _1428
REMARK  667  A    between atoms: _1427  and  _1430
REMARK  668  A    between atoms: _1433  and  _1434
REMARK  669  A    between atoms: _1434  and  _1435
REMARK  670  A    between atoms: _1434  and  _1437
REMARK  671  A    between atoms: _1437  and  _1438
REMARK  672  A    between atoms: _1438  and  _1439
REMARK  673  A    between atoms: _1442  and  _1443
REMARK  674  A    between atoms: _1443  and  _1444
REMARK  675  A    between atoms: _1443  and  _1446
REMARK  676  A    between atoms: _1446  and  _1447
REMARK  677  A    between atoms: _1454  and  _1455
REMARK  678  A    between atoms: _1455  and  _1456
REMARK  679  A    between atoms: _1455  and  _1458
REMARK  680  A    between atoms: _1458  and  _1459
REMARK  681  A    between atoms: _1462  and  _1463
REMARK  682  A    between atoms: _1463  and  _1464
REMARK  683  A    between atoms: _1463  and  _1466
REMARK  684  A    between atoms: _1466  and  _1467
REMARK  685  A    between atoms: _1467  and  _1468
REMARK  686  A    between atoms: _1471  and  _1472
REMARK  687  A    between atoms: _1472  and  _1473
REMARK  688  A    between atoms: _1472  and  _1475
REMARK  689  A    between atoms: _1475  and  _1476
REMARK  690  A    between atoms: _1476  and  _1477
REMARK  691  A    between atoms: _1480  and  _1481
REMARK  692  A    between atoms: _1481  and  _1482
REMARK  693  A    between atoms: _1481  and  _1484
REMARK  694  A    between atoms: _1484  and  _1485
REMARK  695  A    between atoms: _1485  and  _1486
REMARK  696  A    between atoms: _1486  and  _1487
REMARK  697  A    between atoms: _1491  and  _1492
REMARK  698  A    between atoms: _1492  and  _1493
REMARK  699  A    between atoms: _1492  and  _1495
REMARK  700  A    between atoms: _1495  and  _1496
REMARK  701  A    between atoms: _1496  and  _1497
REMARK  702  A    between atoms: _1497  and  _1498
REMARK  703  A    between atoms: _1502  and  _1503
REMARK  704  A    between atoms: _1503  and  _1504
REMARK  705  A    between atoms: _1503  and  _1506
REMARK  706  A    between atoms: _1506  and  _1507
REMARK  707  A    between atoms: _1510  and  _1511
REMARK  708  A    between atoms: _1511  and  _1512
REMARK  709  A    between atoms: _1511  and  _1514
REMARK  710  A    between atoms: _1514  and  _1515
REMARK  711  A    between atoms: _1515  and  _1516
REMARK  712  A    between atoms: _1516  and  _1517
REMARK  713  A    between atoms: _1519  and  _1520
REMARK  714  A    between atoms: _1520  and  _1521
REMARK  715  A    between atoms: _1520  and  _1523
REMARK  716  A    between atoms: _1523  and  _1524
REMARK  717  A    between atoms: _1524  and  _1525
REMARK  718  A    between atoms: _1528  and  _1529
REMARK  719  A    between atoms: _1529  and  _1530
REMARK  720  A    between atoms: _1529  and  _1532
REMARK  721  A    between atoms: _1532  and  _1533
REMARK  722  A    between atoms: _1536  and  _1537
REMARK  723  A    between atoms: _1537  and  _1538
REMARK  724  A    between atoms: _1537  and  _1540
REMARK  725  A    between atoms: _1543  and  _1544
REMARK  726  A    between atoms: _1544  and  _1545
REMARK  727  A    between atoms: _1544  and  _1547
REMARK  728  A    between atoms: _1547  and  _1548
REMARK  729  A    between atoms: _1548  and  _1549
REMARK  730  A    between atoms: _1549  and  _1550
REMARK  731  A    between atoms: _1552  and  _1553
REMARK  732  A    between atoms: _1553  and  _1554
REMARK  733  A    between atoms: _1553  and  _1556
REMARK  734  A    between atoms: _1556  and  _1557
REMARK  735  A    between atoms: _1557  and  _1558
REMARK  736  A    between atoms: _1558  and  _1559
REMARK  737  A    between atoms: _1561  and  _1562
REMARK  738  A    between atoms: _1562  and  _1563
REMARK  739  A    between atoms: _1562  and  _1565
REMARK  740  A    between atoms: _1565  and  _1566
REMARK  741  A    between atoms: _1571  and  _1572
REMARK  742  A    between atoms: _1572  and  _1573
REMARK  743  A    between atoms: _1572  and  _1575
REMARK  744  A    between atoms: _1577  and  _1578
REMARK  745  A    between atoms: _1578  and  _1579
REMARK  746  A    between atoms: _1578  and  _1581
REMARK  747  A    between atoms: _1581  and  _1582
REMARK  748  A    between atoms: _1582  and  _1583
REMARK  749  A    between atoms: _1586  and  _1587
REMARK  750  A    between atoms: _1587  and  _1588
REMARK  751  A    between atoms: _1587  and  _1590
REMARK  752  A    between atoms: _1590  and  _1591
REMARK  753  A    between atoms: _1597  and  _1598
REMARK  754  A    between atoms: _1598  and  _1599
REMARK  755  A    between atoms: _1598  and  _1601
REMARK  756  A    between atoms: _1601  and  _1602
REMARK  757  A    between atoms: _1605  and  _1606
REMARK  758  A    between atoms: _1606  and  _1607
REMARK  759  A    between atoms: _1609  and  _1610
REMARK  760  A    between atoms: _1610  and  _1611
REMARK  761  A    between atoms: _1610  and  _1613
REMARK  762  A    between atoms: _1613  and  _1614
REMARK  763  A    between atoms: _1622  and  _1623
REMARK  764  A    between atoms: _1628  and  _1629
REMARK  765  A    between atoms: _1629  and  _1630
REMARK  766  A    between atoms: _1629  and  _1632
REMARK  767  A    between atoms: _1632  and  _1633
REMARK  768  A    between atoms: _1636  and  _1637
REMARK  769  A    between atoms: _1637  and  _1638
REMARK  770  A    between atoms: _1637  and  _1640
REMARK  771  A    between atoms: _1643  and  _1644
REMARK  772  A    between atoms: _1644  and  _1645
REMARK  773  A    between atoms: _1644  and  _1647
REMARK  774  A    between atoms: _1647  and  _1648
REMARK  775  A    between atoms: _1651  and  _1652
REMARK  776  A    between atoms: _1652  and  _1653
REMARK  777  A    between atoms: _1652  and  _1655
REMARK  778  A    between atoms: _1655  and  _1656
REMARK  779  A    between atoms: _1662  and  _1663
REMARK  780  A    between atoms: _1663  and  _1664
REMARK  781  A    between atoms: _1663  and  _1666
REMARK  782  A    between atoms: _1669  and  _1670
REMARK  783  A    between atoms: _1670  and  _1671
REMARK  784  A    between atoms: _1670  and  _1673
REMARK  785  A    between atoms: _1673  and  _1674
REMARK  786  A    between atoms: _1674  and  _1675
REMARK                            x       y       z     vdW  Elec       q    Type
REMARK                         _______ _______ _______ _____ _____    ______ ____
ROOT
ATOM      1  C   UNK A  22     -14.361   9.725  22.403  0.00  0.00    +0.179 C 
ENDROOT
BRANCH   1   3
ATOM      2  C   UNK A  22     -14.863   7.913  23.934  0.00  0.00    +0.262 C 
ATOM      3  N   UNK A  22     -14.237   9.086  23.695  0.00  0.00    -0.196 NA
ATOM      4  O   UNK A  22     -15.503   7.329  23.060  0.00  0.00    -0.271 OA
BRANCH   2   5
ATOM      5  C   UNK A  22     -14.818   7.398  25.352  0.00  0.00    +0.173 C 
BRANCH   5   8
ATOM      6  C   UNK A  22     -16.251   8.542  26.995  0.00  0.00    +0.262 C 
ATOM      7  O   UNK A  22     -15.310   9.067  27.589  0.00  0.00    -0.271 OA
ATOM      8  N   UNK A  22     -16.108   7.729  25.972  0.00  0.00    -0.196 NA
BRANCH   6   9
ATOM      9  C   UNK A  22     -17.680   8.715  27.520  0.00  0.00    +0.173 C 
BRANCH   9  11
ATOM     10  C   UNK A  22     -17.627   7.353  29.582  0.00  0.00    +0.262 C 
ATOM     11  N   UNK A  22     -17.753   8.544  28.977  0.00  0.00    -0.196 NA
ATOM     12  O   UNK A  22     -17.395   6.305  28.977  0.00  0.00    -0.271 OA
BRANCH  10  13
ATOM     13  C   UNK A  22     -17.783   7.299  31.107  0.00  0.00    +0.173 C 
BRANCH  13  16
ATOM     14  C   UNK A  22     -16.240   8.891  32.113  0.00  0.00    +0.264 C 
ATOM     15  O   UNK A  22     -15.273   8.185  31.823  0.00  0.00    -0.271 OA
ATOM     16  N   UNK A  22     -17.496   8.560  31.786  0.00  0.00    -0.196 NA
BRANCH  14  17
ATOM     17  C   UNK A  22     -16.028  10.188  32.860  0.00  0.00    +0.201 C 
BRANCH  17  19
ATOM     18  C   UNK A  22     -14.473  10.843  34.646  0.00  0.00    +0.264 C 
ATOM     19  N   UNK A  22     -15.348   9.971  34.126  0.00  0.00    -0.194 NA
ATOM     20  O   UNK A  22     -14.123  11.868  34.057  0.00  0.00    -0.271 OA
BRANCH  18  21
ATOM     21  C   UNK A  22     -13.889  10.511  36.029  0.00  0.00    +0.205 C 
BRANCH  21  24
ATOM     22  C   ASP A  21     -15.586   9.095  37.147  0.00  0.00    +0.262 C 
ATOM     23  O   ASP A  21     -16.392  10.019  37.254  0.00  0.00    -0.271 OA
ATOM     24  N   UNK A  22     -14.384   9.244  36.560  0.00  0.00    -0.194 NA
BRANCH  22  25
ATOM     25  CA  ASP A  21     -15.946   7.677  37.607  0.00  0.00    +0.184 C 
BRANCH  25  27
ATOM     26  C   LEU A  20     -15.447   6.568  35.486  0.00  0.00    +0.262 C 
ATOM     27  N   ASP A  21     -15.227   6.667  36.813  0.00  0.00    -0.196 NA
ATOM     28  O   LEU A  20     -16.222   7.300  34.878  0.00  0.00    -0.271 OA
BRANCH  26  29
ATOM     29  CA  LEU A  20     -14.619   5.542  34.693  0.00  0.00    +0.173 C 
BRANCH  29  31
ATOM     30  C   LYS A  19     -12.528   4.871  35.799  0.00  0.00    +0.262 C 
ATOM     31  N   LEU A  20     -13.819   4.657  35.528  0.00  0.00    -0.196 NA
ATOM     32  O   LYS A  19     -11.897   5.833  35.341  0.00  0.00    -0.271 OA
BRANCH  30  33
ATOM     33  CA  LYS A  19     -11.823   3.836  36.677  0.00  0.00    +0.173 C 
BRANCH  33  36
ATOM     34  C   SER A  18     -13.605   3.761  38.416  0.00  0.00    +0.264 C 
ATOM     35  O   SER A  18     -13.593   4.985  38.565  0.00  0.00    -0.271 OA
ATOM     36  N   LYS A  19     -12.805   3.125  37.523  0.00  0.00    -0.196 NA
BRANCH  34  37
ATOM     37  CA  SER A  18     -14.636   2.912  39.168  0.00  0.00    +0.205 C 
BRANCH  37  39
ATOM     38  C   PRO A  17     -15.378   1.453  37.317  0.00  0.00    +0.260 C 
ATOM     39  N   SER A  18     -14.841   1.588  38.561  0.00  0.00    -0.194 NA
ATOM     40  O   PRO A  17     -15.714   2.413  36.610  0.00  0.00    -0.272 OA
BRANCH  38  46
ATOM     41  C   ASP A  16     -13.348  -0.829  37.330  0.00  0.00    +0.246 C 
ATOM     42  N   PRO A  17     -14.687  -0.969  37.384  0.00  0.00    -0.272 N 
ATOM     43  CD  PRO A  17     -15.479  -2.075  37.960  0.00  0.00    +0.094 C 
ATOM     44  CG  PRO A  17     -16.803  -1.937  37.279  0.00  0.00    +0.024 C 
ATOM     45  CB  PRO A  17     -16.981  -0.497  36.987  0.00  0.00    +0.031 C 
ATOM     46  CA  PRO A  17     -15.557   0.043  36.759  0.00  0.00    +0.154 C 
ATOM     47  O   ASP A  16     -12.824   0.158  36.806  0.00  0.00    -0.273 OA
BRANCH  41  48
ATOM     48  CA  ASP A  16     -12.465  -1.919  37.951  0.00  0.00    +0.183 C 
BRANCH  48  51
ATOM     49  C   THR A  15     -12.047  -4.236  37.207  0.00  0.00    +0.264 C 
ATOM     50  O   THR A  15     -12.134  -4.693  38.351  0.00  0.00    -0.271 OA
ATOM     51  N   ASP A  16     -12.194  -2.928  36.932  0.00  0.00    -0.196 NA
BRANCH  49  52
ATOM     52  CA  THR A  15     -11.771  -5.179  36.030  0.00  0.00    +0.203 C 
BRANCH  52  53
ATOM     53  CB  THR A  15     -10.388  -5.819  36.133  0.00  0.00    +0.181 C 
ATOM     54  OG1 THR A  15      -9.379  -4.812  36.023  0.00  0.00    -0.221 OA
ATOM     55  CG2 THR A  15     -10.175  -6.927  35.115  0.00  0.00    +0.038 C 
ENDBRANCH  52  53
BRANCH  52  57
ATOM     56  C   LEU A  14     -12.981  -4.856  33.902  0.00  0.00    +0.262 C 
ATOM     57  N   THR A  15     -11.974  -4.548  34.725  0.00  0.00    -0.194 NA
ATOM     58  O   LEU A  14     -13.822  -5.719  34.155  0.00  0.00    -0.271 OA
BRANCH  56  59
ATOM     59  CA  LEU A  14     -13.069  -4.115  32.580  0.00  0.00    +0.173 C 
BRANCH  59  62
ATOM     60  C   SER A  13     -13.010  -1.820  33.443  0.00  0.00    +0.264 C 
ATOM     61  O   SER A  13     -14.032  -1.995  34.104  0.00  0.00    -0.271 OA
ATOM     62  N   LEU A  14     -12.463  -2.775  32.679  0.00  0.00    -0.196 NA
BRANCH  60  63
ATOM     63  CA  SER A  13     -12.344  -0.460  33.474  0.00  0.00    +0.205 C 
BRANCH  63  66
ATOM     64  C   GLU A  12      -9.978  -1.088  33.692  0.00  0.00    +0.262 C 
ATOM     65  O   GLU A  12     -10.196  -1.736  34.734  0.00  0.00    -0.271 OA
ATOM     66  N   SER A  13     -10.945  -0.469  33.010  0.00  0.00    -0.194 NA
BRANCH  64  67
ATOM     67  CA  GLU A  12      -8.549  -1.005  33.141  0.00  0.00    +0.173 C 
BRANCH  67  70
ATOM     68  C   TYR A  11      -9.031  -2.178  31.055  0.00  0.00    +0.262 C 
ATOM     69  O   TYR A  11      -9.452  -3.154  31.693  0.00  0.00    -0.271 OA
ATOM     70  N   GLU A  12      -8.562  -1.076  31.677  0.00  0.00    -0.196 NA
BRANCH  68  71
ATOM     71  CA  TYR A  11      -9.045  -2.197  29.519  0.00  0.00    +0.177 C 
BRANCH  71  74
ATOM     72  C   ARG A  10     -10.785  -0.533  29.273  0.00  0.00    +0.262 C 
ATOM     73  O   ARG A  10     -11.528  -1.193  30.003  0.00  0.00    -0.271 OA
ATOM     74  N   TYR A  11      -9.545  -0.936  28.981  0.00  0.00    -0.196 NA
BRANCH  72  75
ATOM     75  CA  ARG A  10     -11.278   0.799  28.673  0.00  0.00    +0.173 C 
BRANCH  75  78
ATOM     76  C   ILE A   9      -9.843   2.134  30.057  0.00  0.00    +0.262 C 
ATOM     77  O   ILE A   9     -10.349   1.649  31.086  0.00  0.00    -0.271 OA
ATOM     78  N   ARG A  10     -10.225   1.804  28.836  0.00  0.00    -0.196 NA
BRANCH  76  79
ATOM     79  CA  ILE A   9      -8.701   3.141  30.178  0.00  0.00    +0.173 C 
BRANCH  79  82
ATOM     80  C   LYS A   8      -6.954   1.861  29.141  0.00  0.00    +0.262 C 
ATOM     81  O   LYS A   8      -7.000   1.045  30.062  0.00  0.00    -0.271 OA
ATOM     82  N   ILE A   9      -7.732   2.950  29.114  0.00  0.00    -0.196 NA
BRANCH  80  83
ATOM     83  CA  LYS A   8      -5.949   1.664  28.019  0.00  0.00    +0.173 C 
BRANCH  83  86
ATOM     84  C   ASP A   7      -7.564   1.198  26.251  0.00  0.00    +0.262 C 
ATOM     85  O   ASP A   7      -8.018   0.236  26.887  0.00  0.00    -0.271 OA
ATOM     86  N   LYS A   8      -6.537   1.946  26.718  0.00  0.00    -0.196 NA
BRANCH  84  87
ATOM     87  CA  ASP A   7      -8.071   1.475  24.852  0.00  0.00    +0.184 C 
BRANCH  87  90
ATOM     88  C   LEU A   6      -8.885   3.687  25.366  0.00  0.00    +0.262 C 
ATOM     89  O   LEU A   6      -9.554   3.239  26.317  0.00  0.00    -0.271 OA
ATOM     90  N   ASP A   7      -8.080   2.922  24.612  0.00  0.00    -0.196 NA
BRANCH  88  91
ATOM     91  CA  LEU A   6      -8.819   5.195  25.141  0.00  0.00    +0.173 C 
BRANCH  91  94
ATOM     92  C   ALA A   5      -6.484   5.521  25.845  0.00  0.00    +0.262 C 
ATOM     93  O   ALA A   5      -6.731   5.251  27.024  0.00  0.00    -0.271 OA
ATOM     94  N   LEU A   6      -7.433   5.575  24.894  0.00  0.00    -0.196 NA
BRANCH  92  95
ATOM     95  CA  ALA A   5      -5.074   5.931  25.419  0.00  0.00    +0.173 C 
ATOM     96  CB  ALA A   5      -4.939   7.453  25.536  0.00  0.00    +0.033 C 
BRANCH  95  99
ATOM     97  C   ASP A   4      -4.687   4.212  23.749  0.00  0.00    +0.262 C 
ATOM     98  O   ASP A   4      -4.822   3.323  24.583  0.00  0.00    -0.271 OA
ATOM     99  N   ALA A   5      -4.779   5.524  24.052  0.00  0.00    -0.196 NA
BRANCH  97 100
ATOM    100  CA  ASP A   4      -4.397   3.862  22.303  0.00  0.00    +0.184 C 
BRANCH 100 103
ATOM    101  C   SER A   3      -6.449   4.711  21.361  0.00  0.00    +0.264 C 
ATOM    102  O   SER A   3      -7.110   3.997  22.127  0.00  0.00    -0.271 OA
ATOM    103  N   ASP A   4      -5.105   4.726  21.386  0.00  0.00    -0.196 NA
BRANCH 101 104
ATOM    104  CA  SER A   3      -7.179   5.680  20.408  0.00  0.00    +0.205 C 
BRANCH 104 107
ATOM    105  C   SER A   2      -6.433   7.704  21.558  0.00  0.00    +0.264 C 
ATOM    106  O   SER A   2      -6.922   7.357  22.630  0.00  0.00    -0.271 OA
ATOM    107  N   SER A   3      -6.540   6.997  20.403  0.00  0.00    -0.194 NA
BRANCH 105 108
ATOM    108  CA  SER A   2      -5.733   9.047  21.466  0.00  0.00    +0.205 C 
BRANCH 108 111
ATOM    109  C   ASN A   1      -3.526   8.112  21.128  0.00  0.00    +0.260 C 
ATOM    110  O   ASN A   1      -3.600   7.483  22.171  0.00  0.00    -0.272 OA
ATOM    111  N   SER A   2      -4.502   8.932  20.688  0.00  0.00    -0.194 NA
BRANCH 109 113
ATOM    112  N   ASN A   1      -2.654   7.950  18.835  0.00  0.00    -0.123 NA
ATOM    113  CA  ASN A   1      -2.275   7.995  20.253  0.00  0.00    +0.178 C 
BRANCH 113 114
ATOM    114  CB  ASN A   1      -1.393   9.189  20.509  0.00  0.00    +0.117 C 
BRANCH 114 115
ATOM    115  CG  ASN A   1       0.018   9.050  20.019  0.00  0.00    +0.263 C 
ATOM    116  ND2 ASN A   1       0.756  10.153  20.058  0.00  0.00    -0.088 NA
ATOM    117  OD1 ASN A   1       0.472   7.954  19.640  0.00  0.00    -0.272 OA
ENDBRANCH 114 115
ENDBRANCH 113 114
ENDBRANCH 109 113
ENDBRANCH 108 111
BRANCH 108 118
ATOM    118  CB  SER A   2      -6.658  10.051  20.803  0.00  0.00    +0.213 C 
ATOM    119  OG  SER A   2      -6.135  11.375  20.945  0.00  0.00    -0.218 OA
ENDBRANCH 108 118
ENDBRANCH 105 108
ENDBRANCH 104 107
BRANCH 104 120
ATOM    120  CB  SER A   3      -7.186   5.127  18.992  0.00  0.00    +0.213 C 
ATOM    121  OG  SER A   3      -7.769   3.821  18.950  0.00  0.00    -0.218 OA
ENDBRANCH 104 120
ENDBRANCH 101 104
ENDBRANCH 100 103
BRANCH 100 122
ATOM    122  CB  ASP A   4      -2.890   3.967  22.051  0.00  0.00    +0.145 C 
BRANCH 122 123
ATOM    123  CG  ASP A   4      -2.407   3.387  20.714  0.00  0.00    +0.367 C 
ATOM    124  OD2 ASP A   4      -1.223   3.620  20.359  0.00  0.00    -0.246 OA
ATOM    125  OD1 ASP A   4      -3.230   2.726  20.005  0.00  0.00    -0.246 OA
ENDBRANCH 122 123
ENDBRANCH 100 122
ENDBRANCH  97 100
ENDBRANCH  95  99
ENDBRANCH  92  95
ENDBRANCH  91  94
BRANCH  91 126
ATOM    126  CB  LEU A   6      -9.696   5.626  23.969  0.00  0.00    +0.031 C 
BRANCH 126 127
ATOM    127  CG  LEU A   6     -10.024   7.129  23.950  0.00  0.00    +0.002 C 
ATOM    128  CD2 LEU A   6     -11.141   7.438  24.963  0.00  0.00    +0.000 C 
ATOM    129  CD1 LEU A   6     -10.421   7.582  22.571  0.00  0.00    +0.000 C 
ENDBRANCH 126 127
ENDBRANCH  91 126
ENDBRANCH  88  91
ENDBRANCH  87  90
BRANCH  87 130
ATOM    130  CB  ASP A   7      -7.141   0.747  23.860  0.00  0.00    +0.145 C 
BRANCH 130 131
ATOM    131  CG  ASP A   7      -7.570   0.744  22.394  0.00  0.00    +0.367 C 
ATOM    132  OD2 ASP A   7      -8.756   1.072  22.111  0.00  0.00    -0.246 OA
ATOM    133  OD1 ASP A   7      -6.706   0.405  21.524  0.00  0.00    -0.246 OA
ENDBRANCH 130 131
ENDBRANCH  87 130
ENDBRANCH  84  87
ENDBRANCH  83  86
BRANCH  83 134
ATOM    134  CB  LYS A   8      -4.721   2.568  28.262  0.00  0.00    +0.031 C 
BRANCH 134 135
ATOM    135  CG  LYS A   8      -3.513   2.281  27.374  0.00  0.00    +0.004 C 
BRANCH 135 136
ATOM    136  CD  LYS A   8      -2.333   3.230  27.725  0.00  0.00    +0.021 C 
BRANCH 136 137
ATOM    137  CE  LYS A   8      -1.168   3.164  26.742  0.00  0.00    +0.109 C 
ATOM    138  NZ  LYS A   8       0.035   4.047  27.144  0.00  0.00    -0.131 NA
ENDBRANCH 136 137
ENDBRANCH 135 136
ENDBRANCH 134 135
ENDBRANCH  83 134
ENDBRANCH  80  83
ENDBRANCH  79  82
BRANCH  79 139
ATOM    139  CB  ILE A   9      -9.185   4.619  30.280  0.00  0.00    +0.029 C 
ATOM    140  CG2 ILE A   9      -9.963   5.097  29.060  0.00  0.00    +0.002 C 
BRANCH 139 141
ATOM    141  CG1 ILE A   9     -10.014   4.875  31.578  0.00  0.00    +0.002 C 
ATOM    142  CD1 ILE A   9      -9.220   4.705  32.871  0.00  0.00    +0.000 C 
ENDBRANCH 139 141
ENDBRANCH  79 139
ENDBRANCH  76  79
ENDBRANCH  75  78
BRANCH  75 143
ATOM    143  CB  ARG A  10     -11.635   0.610  27.205  0.00  0.00    +0.035 C 
BRANCH 143 144
ATOM    144  CG  ARG A  10     -12.745  -0.419  27.002  0.00  0.00    +0.049 C 
BRANCH 144 145
ATOM    145  CD  ARG A  10     -13.153  -0.468  25.559  0.00  0.00    +0.220 C 
BRANCH 145 146
ATOM    146  NE  ARG A  10     -14.243   0.458  25.280  0.00  0.00    -0.087 NA
ATOM    147  CZ  ARG A  10     -14.553   0.882  24.062  0.00  0.00    +0.535 C 
ATOM    148  NH2 ARG A  10     -15.574   1.708  23.882  0.00  0.00    +0.135 NA
ATOM    149  NH1 ARG A  10     -13.814   0.526  23.023  0.00  0.00    +0.135 NA
ENDBRANCH 145 146
ENDBRANCH 144 145
ENDBRANCH 143 144
ENDBRANCH  75 143
ENDBRANCH  72  75
ENDBRANCH  71  74
BRANCH  71 150
ATOM    150  CB  TYR A  11      -7.648  -2.507  28.954  0.00  0.00    +0.057 C 
BRANCH 150 151
ATOM    151  CG  TYR A  11      -7.138  -3.840  29.428  0.00  0.00    -0.020 A 
ATOM    152  CD2 TYR A  11      -6.142  -3.921  30.397  0.00  0.00    -0.001 A 
ATOM    153  CE2 TYR A  11      -5.691  -5.146  30.872  0.00  0.00    +0.042 A 
ATOM    154  CZ  TYR A  11      -6.244  -6.307  30.376  0.00  0.00    +0.196 A 
ATOM    155  OH  TYR A  11      -5.745  -7.514  30.822  0.00  0.00    -0.287 OA
ATOM    156  CE1 TYR A  11      -7.211  -6.260  29.383  0.00  0.00    +0.042 A 
ATOM    157  CD1 TYR A  11      -7.639  -5.024  28.897  0.00  0.00    -0.001 A 
ENDBRANCH 150 151
ENDBRANCH  71 150
ENDBRANCH  68  71
ENDBRANCH  67  70
BRANCH  67 158
ATOM    158  CB  GLU A  12      -7.899   0.282  33.623  0.00  0.00    +0.043 C 
BRANCH 158 159
ATOM    159  CG  GLU A  12      -6.412   0.310  33.368  0.00  0.00    +0.116 C 
BRANCH 159 160
ATOM    160  CD  GLU A  12      -5.661   1.340  34.187  0.00  0.00    +0.365 C 
ATOM    161  OE2 GLU A  12      -6.320   2.259  34.721  0.00  0.00    -0.246 OA
ATOM    162  OE1 GLU A  12      -4.412   1.301  34.180  0.00  0.00    -0.246 OA
ENDBRANCH 159 160
ENDBRANCH 158 159
ENDBRANCH  67 158
ENDBRANCH  64  67
ENDBRANCH  63  66
BRANCH  63 163
ATOM    163  CB  SER A  13     -13.163   0.518  32.654  0.00  0.00    +0.213 C 
ATOM    164  OG  SER A  13     -13.505  -0.024  31.387  0.00  0.00    -0.218 OA
ENDBRANCH  63 163
ENDBRANCH  60  63
ENDBRANCH  59  62
BRANCH  59 165
ATOM    165  CB  LEU A  14     -12.383  -4.945  31.486  0.00  0.00    +0.031 C 
BRANCH 165 166
ATOM    166  CG  LEU A  14     -12.472  -4.420  30.045  0.00  0.00    +0.002 C 
ATOM    167  CD2 LEU A  14     -13.909  -4.195  29.589  0.00  0.00    +0.000 C 
ATOM    168  CD1 LEU A  14     -11.759  -5.365  29.091  0.00  0.00    +0.000 C 
ENDBRANCH 165 166
ENDBRANCH  59 165
ENDBRANCH  56  59
ENDBRANCH  52  57
ENDBRANCH  49  52
ENDBRANCH  48  51
BRANCH  48 169
ATOM    169  CB  ASP A  16     -11.150  -1.358  38.520  0.00  0.00    +0.145 C 
BRANCH 169 170
ATOM    170  CG  ASP A  16     -11.357  -0.359  39.644  0.00  0.00    +0.367 C 
ATOM    171  OD2 ASP A  16     -10.351   0.154  40.168  0.00  0.00    -0.246 OA
ATOM    172  OD1 ASP A  16     -12.531  -0.053  39.957  0.00  0.00    -0.246 OA
ENDBRANCH 169 170
ENDBRANCH  48 169
ENDBRANCH  41  48
ENDBRANCH  38  46
ENDBRANCH  37  39
BRANCH  37 173
ATOM    173  CB  SER A  18     -14.304   2.801  40.655  0.00  0.00    +0.213 C 
ATOM    174  OG  SER A  18     -12.973   2.388  40.896  0.00  0.00    -0.218 OA
ENDBRANCH  37 173
ENDBRANCH  34  37
ENDBRANCH  33  36
BRANCH  33 175
ATOM    175  CB  LYS A  19     -11.097   2.814  35.781  0.00  0.00    +0.031 C 
BRANCH 175 176
ATOM    176  CG  LYS A  19     -10.164   1.876  36.539  0.00  0.00    +0.004 C 
BRANCH 176 177
ATOM    177  CD  LYS A  19      -8.865   2.547  36.920  0.00  0.00    +0.021 C 
BRANCH 177 178
ATOM    178  CE  LYS A  19      -7.922   1.610  37.606  0.00  0.00    +0.109 C 
ATOM    179  NZ  LYS A  19      -6.558   2.192  37.645  0.00  0.00    -0.131 NA
ENDBRANCH 177 178
ENDBRANCH 176 177
ENDBRANCH 175 176
ENDBRANCH  33 175
ENDBRANCH  30  33
ENDBRANCH  29  31
BRANCH  29 180
ATOM    180  CB  LEU A  20     -15.515   4.766  33.710  0.00  0.00    +0.031 C 
BRANCH 180 181
ATOM    181  CG  LEU A  20     -14.775   3.868  32.707  0.00  0.00    +0.002 C 
ATOM    182  CD2 LEU A  20     -13.820   4.690  31.830  0.00  0.00    +0.000 C 
ATOM    183  CD1 LEU A  20     -15.778   3.105  31.826  0.00  0.00    +0.000 C 
ENDBRANCH 180 181
ENDBRANCH  29 180
ENDBRANCH  26  29
ENDBRANCH  25  27
BRANCH  25 184
ATOM    184  CB  ASP A  21     -15.632   7.511  39.101  0.00  0.00    +0.145 C 
BRANCH 184 185
ATOM    185  CG  ASP A  21     -16.271   6.288  39.767  0.00  0.00    +0.367 C 
ATOM    186  OD2 ASP A  21     -15.857   5.946  40.892  0.00  0.00    -0.246 OA
ATOM    187  OD1 ASP A  21     -17.142   5.637  39.125  0.00  0.00    -0.246 OA
ENDBRANCH 184 185
ENDBRANCH  25 184
ENDBRANCH  22  25
ENDBRANCH  21  24
BRANCH  21 188
ATOM    188  C   UNK A  22     -12.367  10.476  35.978  0.00  0.00    +0.213 C 
ATOM    189  O   UNK A  22     -11.927   9.258  35.385  0.00  0.00    -0.218 OA
ENDBRANCH  21 188
ENDBRANCH  18  21
ENDBRANCH  17  19
ENDBRANCH  14  17
ENDBRANCH  13  16
BRANCH  13 190
ATOM    190  C   UNK A  22     -19.186   6.787  31.496  0.00  0.00    +0.031 C 
BRANCH 190 191
ATOM    191  C   UNK A  22     -19.221   6.227  32.922  0.00  0.00    +0.004 C 
BRANCH 191 192
ATOM    192  C   UNK A  22     -20.639   5.990  33.429  0.00  0.00    +0.021 C 
BRANCH 192 193
ATOM    193  C   UNK A  22     -20.642   5.633  34.899  0.00  0.00    +0.109 C 
ATOM    194  N   UNK A  22     -22.018   5.377  35.410  0.00  0.00    -0.131 NA
ENDBRANCH 192 193
ENDBRANCH 191 192
ENDBRANCH 190 191
ENDBRANCH  13 190
ENDBRANCH  10  13
ENDBRANCH   9  11
BRANCH   9 195
ATOM    195  C   UNK A  22     -18.234  10.070  27.087  0.00  0.00    +0.043 C 
BRANCH 195 196
ATOM    196  C   UNK A  22     -19.750  10.201  27.244  0.00  0.00    +0.116 C 
BRANCH 196 197
ATOM    197  C   UNK A  22     -20.286  10.356  28.657  0.00  0.00    +0.365 C 
ATOM    198  O   UNK A  22     -19.680  11.116  29.448  0.00  0.00    -0.246 OA
ATOM    199  O   UNK A  22     -21.316   9.716  28.973  0.00  0.00    -0.246 OA
ENDBRANCH 196 197
ENDBRANCH 195 196
ENDBRANCH   9 195
ENDBRANCH   6   9
ENDBRANCH   5   8
BRANCH   5 200
ATOM    200  C   UNK A  22     -14.531   5.881  25.419  0.00  0.00    +0.031 C 
BRANCH 200 201
ATOM    201  C   UNK A  22     -14.440   5.245  26.822  0.00  0.00    +0.002 C 
ATOM    202  C   UNK A  22     -13.418   5.930  27.703  0.00  0.00    +0.000 C 
ATOM    203  C   UNK A  22     -14.078   3.745  26.709  0.00  0.00    +0.000 C 
ENDBRANCH 200 201
ENDBRANCH   5 200
ENDBRANCH   2   5
ENDBRANCH   1   3
BRANCH   1 204
ATOM    204  C   UNK A  22     -13.146  10.596  22.057  0.00  0.00    +0.262 C 
ATOM    205  O   UNK A  22     -12.286  10.825  22.923  0.00  0.00    -0.271 OA
ATOM    206  N   UNK A  22     -13.140  11.087  20.810  0.00  0.00    -0.196 NA
BRANCH 206 207
ATOM    207  C   UNK A  22     -12.122  11.968  20.258  0.00  0.00    +0.173 C 
BRANCH 207 208
ATOM    208  C   UNK A  22     -12.820  13.136  19.599  0.00  0.00    +0.262 C 
ATOM    209  N   UNK A  22     -12.460  14.373  20.002  0.00  0.00    -0.196 NA
ATOM    210  O   UNK A  22     -13.666  12.932  18.725  0.00  0.00    -0.271 OA
BRANCH 209 211
ATOM    211  C   UNK A  22     -13.012  15.556  19.361  0.00  0.00    +0.182 C 
BRANCH 211 212
ATOM    212  C   UNK A  22     -11.904  16.325  18.654  0.00  0.00    +0.262 C 
ATOM    213  O   UNK A  22     -10.775  16.419  19.176  0.00  0.00    -0.271 OA
ATOM    214  N   UNK A  22     -12.243  16.882  17.489  0.00  0.00    -0.196 NA
BRANCH 214 215
ATOM    215  C   UNK A  22     -11.294  17.676  16.702  0.00  0.00    +0.173 C 
BRANCH 215 216
ATOM    216  C   UNK A  22     -11.870  19.078  16.669  0.00  0.00    +0.262 C 
ATOM    217  N   UNK A  22     -11.128  20.041  17.230  0.00  0.00    -0.196 NA
ATOM    218  O   UNK A  22     -12.995  19.263  16.181  0.00  0.00    -0.271 OA
BRANCH 217 219
ATOM    219  C   UNK A  22     -11.642  21.405  17.372  0.00  0.00    +0.171 C 
BRANCH 219 220
ATOM    220  C   UNK A  22     -10.727  22.406  16.675  0.00  0.00    +0.246 C 
ATOM    221  O   UNK A  22      -9.690  22.806  17.231  0.00  0.00    -0.273 OA
ATOM    222  N   UNK A  22     -11.146  22.871  15.512  0.00  0.00    -0.272 N 
ATOM    223  C   UNK A  22     -10.373  23.916  14.836  0.00  0.00    +0.154 C 
ATOM    224  C   UNK A  22     -10.744  23.726  13.377  0.00  0.00    +0.031 C 
ATOM    225  C   UNK A  22     -12.148  23.110  13.389  0.00  0.00    +0.024 C 
ATOM    226  C   UNK A  22     -12.359  22.485  14.757  0.00  0.00    +0.094 C 
BRANCH 223 227
ATOM    227  C   UNK A  22     -10.840  25.291  15.342  0.00  0.00    +0.260 C 
ATOM    228  O   UNK A  22     -12.046  25.468  15.624  0.00  0.00    -0.272 OA
ATOM    229  N   UNK A  22      -9.925  26.249  15.436  0.00  0.00    -0.196 NA
BRANCH 229 230
ATOM    230  C   UNK A  22     -10.269  27.634  15.818  0.00  0.00    +0.182 C 
BRANCH 230 231
ATOM    231  C   UNK A  22      -9.420  28.556  14.953  0.00  0.00    +0.262 C 
ATOM    232  O   UNK A  22      -8.224  28.706  15.204  0.00  0.00    -0.271 OA
ATOM    233  N   UNK A  22     -10.052  29.189  13.946  0.00  0.00    -0.196 NA
BRANCH 233 234
ATOM    234  C   UNK A  22      -9.348  30.058  12.991  0.00  0.00    +0.173 C 
BRANCH 234 235
ATOM    235  C   UNK A  22      -8.877  31.357  13.618  0.00  0.00    +0.262 C 
ATOM    236  N   UNK A  22      -9.584  31.838  14.656  0.00  0.00    -0.196 NA
ATOM    237  O   UNK A  22      -7.847  31.885  13.202  0.00  0.00    -0.271 OA
BRANCH 236 238
ATOM    238  C   UNK A  22      -9.205  33.070  15.361  0.00  0.00    +0.173 C 
BRANCH 238 239
ATOM    239  C   UNK A  22      -7.903  32.891  16.144  0.00  0.00    +0.262 C 
ATOM    240  N   UNK A  22      -7.766  31.766  16.871  0.00  0.00    -0.196 NA
ATOM    241  O   UNK A  22      -7.021  33.748  16.068  0.00  0.00    -0.271 OA
BRANCH 240 242
ATOM    242  C   UNK A  22      -6.574  31.465  17.665  0.00  0.00    +0.184 C 
BRANCH 242 243
ATOM    243  C   UNK A  22      -5.498  30.741  16.843  0.00  0.00    +0.262 C 
ATOM    244  O   UNK A  22      -4.377  30.575  17.322  0.00  0.00    -0.271 OA
ATOM    245  N   UNK A  22      -5.860  30.309  15.630  0.00  0.00    -0.196 NA
BRANCH 245 246
ATOM    246  C   UNK A  22      -5.000  29.526  14.730  0.00  0.00    +0.173 C 
BRANCH 246 247
ATOM    247  C   UNK A  22      -4.553  28.224  15.440  0.00  0.00    +0.262 C 
ATOM    248  N   UNK A  22      -5.523  27.516  16.035  0.00  0.00    -0.194 NA
ATOM    249  O   UNK A  22      -3.361  27.885  15.442  0.00  0.00    -0.271 OA
BRANCH 248 250
ATOM    250  C   UNK A  22      -5.221  26.280  16.741  0.00  0.00    +0.203 C 
BRANCH 250 251
ATOM    251  C   UNK A  22      -5.409  26.419  18.261  0.00  0.00    +0.181 C 
ATOM    252  C   UNK A  22      -4.380  27.358  18.895  0.00  0.00    +0.038 C 
ATOM    253  O   UNK A  22      -6.775  26.801  18.553  0.00  0.00    -0.221 OA
ENDBRANCH 250 251
BRANCH 250 254
ATOM    254  C   UNK A  22      -6.094  25.157  16.276  0.00  0.00    +0.264 C 
ATOM    255  N   UNK A  22      -5.528  23.928  16.260  0.00  0.00    -0.196 NA
ATOM    256  O   UNK A  22      -7.269  25.376  15.939  0.00  0.00    -0.271 OA
BRANCH 255 257
ATOM    257  C   UNK A  22      -6.305  22.710  16.028  0.00  0.00    +0.173 C 
BRANCH 257 258
ATOM    258  C   UNK A  22      -6.107  21.907  17.286  0.00  0.00    +0.262 C 
ATOM    259  N   UNK A  22      -7.203  21.562  17.992  0.00  0.00    -0.194 NA
ATOM    260  O   UNK A  22      -4.962  21.633  17.652  0.00  0.00    -0.271 OA
BRANCH 259 261
ATOM    261  C   UNK A  22      -7.076  20.831  19.242  0.00  0.00    +0.203 C 
BRANCH 261 262
ATOM    262  C   UNK A  22      -7.660  19.416  19.073  0.00  0.00    +0.264 C 
ATOM    263  N   UNK A  22      -6.892  18.386  19.523  0.00  0.00    -0.196 NA
ATOM    264  O   UNK A  22      -8.749  19.258  18.512  0.00  0.00    -0.271 OA
BRANCH 263 265
ATOM    265  C   UNK A  22      -7.335  16.995  19.503  0.00  0.00    +0.173 C 
BRANCH 265 266
ATOM    266  C   UNK A  22      -7.603  16.633  20.965  0.00  0.00    +0.262 C 
ATOM    267  O   UNK A  22      -6.675  16.601  21.774  0.00  0.00    -0.271 OA
ATOM    268  N   UNK A  22      -8.882  16.343  21.302  0.00  0.00    -0.196 NA
BRANCH 268 269
ATOM    269  C   UNK A  22      -9.247  16.002  22.663  0.00  0.00    +0.173 C 
BRANCH 269 270
ATOM    270  C   UNK A  22      -9.625  14.541  22.714  0.00  0.00    +0.262 C 
ATOM    271  N   UNK A  22      -9.172  13.860  23.737  0.00  0.00    -0.196 NA
ATOM    272  O   UNK A  22     -10.399  14.075  21.863  0.00  0.00    -0.271 OA
BRANCH 271 273
ATOM    273  C   UNK A  22      -9.618  12.502  23.987  0.00  0.00    +0.184 C 
BRANCH 273 274
ATOM    274  C   UNK A  22      -9.926  12.325  25.458  0.00  0.00    +0.262 C 
ATOM    275  O   UNK A  22      -9.411  13.046  26.322  0.00  0.00    -0.271 OA
ATOM    276  N   UNK A  22     -10.773  11.325  25.742  0.00  0.00    -0.194 NA
BRANCH 276 277
ATOM    277  C   UNK A  22     -11.089  10.996  27.106  0.00  0.00    +0.203 C 
BRANCH 277 278
ATOM    278  C   UNK A  22     -12.598  11.009  27.320  0.00  0.00    +0.181 C 
ATOM    279  C   UNK A  22     -13.182  12.409  27.236  0.00  0.00    +0.038 C 
ATOM    280  O   UNK A  22     -13.209  10.189  26.335  0.00  0.00    -0.221 OA
ENDBRANCH 277 278
BRANCH 277 281
ATOM    281  C   UNK A  22     -10.421   9.679  27.513  0.00  0.00    +0.264 C 
ATOM    282  O   UNK A  22     -10.967   8.880  28.263  0.00  0.00    -0.271 OA
ATOM    283  N   UNK A  22      -9.209   9.475  27.019  0.00  0.00    -0.194 NA
BRANCH 283 284
ATOM    284  C   UNK A  22      -8.412   8.309  27.341  0.00  0.00    +0.201 C 
BRANCH 284 285
ATOM    285  C   UNK A  22      -7.843   8.323  28.741  0.00  0.00    +0.264 C 
ATOM    286  O   UNK A  22      -8.301   9.087  29.602  0.00  0.00    -0.271 OA
ATOM    287  N   UNK A  22      -6.887   7.443  29.003  0.00  0.00    -0.196 NA
BRANCH 287 288
ATOM    288  C   UNK A  22      -6.365   7.269  30.349  0.00  0.00    +0.173 C 
BRANCH 288 289
ATOM    289  C   UNK A  22      -5.616   8.503  30.891  0.00  0.00    +0.262 C 
ATOM    290  O   UNK A  22      -5.432   8.623  32.116  0.00  0.00    -0.271 OA
ATOM    291  N   UNK A  22      -5.197   9.403  29.994  0.00  0.00    -0.194 NA
BRANCH 291 292
ATOM    292  C   UNK A  22      -4.429  10.549  30.463  0.00  0.00    +0.201 C 
BRANCH 292 293
ATOM    293  C   UNK A  22      -3.002  10.172  30.817  0.00  0.00    +0.264 C 
ATOM    294  N   UNK A  22      -2.239  11.186  31.244  0.00  0.00    -0.196 NA
ATOM    295  O   UNK A  22      -2.557   9.018  30.693  0.00  0.00    -0.271 OA
BRANCH 294 296
ATOM    296  C   UNK A  22      -0.844  10.987  31.587  0.00  0.00    +0.174 C 
BRANCH 296 297
ATOM    297  C   UNK A  22      -0.532  11.645  32.924  0.00  0.00    +0.262 C 
ATOM    298  N   UNK A  22       0.283  10.969  33.728  0.00  0.00    -0.194 NA
ATOM    299  O   UNK A  22      -1.030  12.742  33.191  0.00  0.00    -0.271 OA
BRANCH 298 300
ATOM    300  C   UNK A  22       0.745  11.563  34.993  0.00  0.00    +0.203 C 
BRANCH 300 301
ATOM    301  C   UNK A  22       1.847  12.568  34.661  0.00  0.00    +0.264 C 
ATOM    302  N   UNK A  22       2.242  13.371  35.663  0.00  0.00    -0.196 NA
ATOM    303  O   UNK A  22       2.372  12.600  33.535  0.00  0.00    -0.271 OA
BRANCH 302 304
ATOM    304  C   UNK A  22       3.327  14.326  35.475  0.00  0.00    +0.173 C 
BRANCH 304 305
ATOM    305  C   UNK A  22       4.570  13.572  35.033  0.00  0.00    +0.262 C 
ATOM    306  N   UNK A  22       4.843  12.393  35.648  0.00  0.00    -0.196 NA
ATOM    307  O   UNK A  22       5.283  14.043  34.143  0.00  0.00    -0.271 OA
BRANCH 306 308
ATOM    308  C   UNK A  22       6.010  11.591  35.320  0.00  0.00    +0.173 C 
ATOM    309  C   UNK A  22       6.116  10.398  36.258  0.00  0.00    +0.033 C 
BRANCH 308 310
ATOM    310  C   UNK A  22       5.965  11.122  33.867  0.00  0.00    +0.262 C 
ATOM    311  N   UNK A  22       4.757  10.749  33.361  0.00  0.00    -0.196 NA
ATOM    312  O   UNK A  22       7.001  11.106  33.195  0.00  0.00    -0.271 OA
BRANCH 311 313
ATOM    313  C   UNK A  22       4.596  10.312  31.956  0.00  0.00    +0.184 C 
BRANCH 313 314
ATOM    314  C   UNK A  22       4.902  11.481  31.038  0.00  0.00    +0.262 C 
ATOM    315  N   UNK A  22       4.420  12.694  31.383  0.00  0.00    -0.196 NA
ATOM    316  O   UNK A  22       5.561  11.303  30.004  0.00  0.00    -0.271 OA
BRANCH 315 317
ATOM    317  C   UNK A  22       4.675  13.857  30.538  0.00  0.00    +0.173 C 
BRANCH 317 318
ATOM    318  C   UNK A  22       6.146  14.114  30.419  0.00  0.00    +0.261 C 
ATOM    319  N   UNK A  22       6.850  14.107  31.559  0.00  0.00    -0.204 NA
ATOM    320  O   UNK A  22       6.644  14.330  29.317  0.00  0.00    -0.271 OA
BRANCH 319 321
ATOM    321  C   UNK A  22       8.287  14.381  31.559  0.00  0.00    +0.115 C 
BRANCH 321 322
ATOM    322  C   UNK A  22       8.794  14.566  33.013  0.00  0.00    +0.022 C 
ATOM    323  C   UNK A  22      10.350  14.584  33.078  0.00  0.00    +0.002 C 
BRANCH 322 324
ATOM    324  C   UNK A  22       8.169  15.858  33.609  0.00  0.00    +0.002 C 
ATOM    325  C   UNK A  22       8.224  15.949  35.141  0.00  0.00    +0.000 C 
ENDBRANCH 322 324
ENDBRANCH 321 322
ENDBRANCH 319 321
ENDBRANCH 317 318
BRANCH 317 326
ATOM    326  C   UNK A  22       4.025  15.149  31.072  0.00  0.00    +0.031 C 
BRANCH 326 327
ATOM    327  C   UNK A  22       2.542  15.300  30.935  0.00  0.00    +0.002 C 
ATOM    328  C   UNK A  22       2.073  16.591  31.630  0.00  0.00    +0.000 C 
ATOM    329  C   UNK A  22       2.120  15.361  29.457  0.00  0.00    +0.000 C 
ENDBRANCH 326 327
ENDBRANCH 317 326
ENDBRANCH 315 317
ENDBRANCH 313 314
BRANCH 313 330
ATOM    330  C   UNK A  22       3.135   9.900  31.674  0.00  0.00    +0.145 C 
BRANCH 330 331
ATOM    331  C   UNK A  22       2.671   8.582  32.269  0.00  0.00    +0.367 C 
ATOM    332  O   UNK A  22       1.470   8.488  32.634  0.00  0.00    -0.246 OA
ATOM    333  O   UNK A  22       3.480   7.612  32.295  0.00  0.00    -0.246 OA
ENDBRANCH 330 331
ENDBRANCH 313 330
ENDBRANCH 311 313
ENDBRANCH 308 310
ENDBRANCH 306 308
ENDBRANCH 304 305
BRANCH 304 334
ATOM    334  C   UNK A  22       3.615  15.073  36.794  0.00  0.00    +0.031 C 
BRANCH 334 335
ATOM    335  C   UNK A  22       4.600  16.209  36.595  0.00  0.00    +0.004 C 
BRANCH 335 336
ATOM    336  C   UNK A  22       5.006  16.818  37.949  0.00  0.00    +0.021 C 
BRANCH 336 337
ATOM    337  C   UNK A  22       5.845  18.035  37.692  0.00  0.00    +0.109 C 
ATOM    338  N   UNK A  22       6.365  18.594  38.975  0.00  0.00    -0.131 NA
ENDBRANCH 336 337
ENDBRANCH 335 336
ENDBRANCH 334 335
ENDBRANCH 304 334
ENDBRANCH 302 304
ENDBRANCH 300 301
BRANCH 300 339
ATOM    339  C   UNK A  22       1.348  10.480  35.887  0.00  0.00    +0.181 C 
ATOM    340  C   UNK A  22       0.352   9.392  36.239  0.00  0.00    +0.038 C 
ATOM    341  O   UNK A  22       2.498   9.914  35.251  0.00  0.00    -0.221 OA
ENDBRANCH 300 339
ENDBRANCH 298 300
ENDBRANCH 296 297
BRANCH 296 342
ATOM    342  C   UNK A  22       0.056  11.603  30.499  0.00  0.00    +0.043 C 
BRANCH 342 343
ATOM    343  C   UNK A  22       0.070  10.754  29.215  0.00  0.00    +0.060 C 
BRANCH 343 344
ATOM    344  S   UNK A  22       1.021  11.509  27.869  0.00  0.00    -0.139 S 
ATOM    345  C   UNK A  22      -0.131  12.821  27.368  0.00  0.00    +0.069 C 
ENDBRANCH 343 344
ENDBRANCH 342 343
ENDBRANCH 296 342
ENDBRANCH 294 296
ENDBRANCH 292 293
ENDBRANCH 291 292
ENDBRANCH 288 289
BRANCH 288 346
ATOM    346  C   UNK A  22      -5.531   5.955  30.437  0.00  0.00    +0.029 C 
ATOM    347  C   UNK A  22      -4.177   6.071  29.663  0.00  0.00    +0.002 C 
BRANCH 346 348
ATOM    348  C   UNK A  22      -5.340   5.488  31.900  0.00  0.00    +0.002 C 
ATOM    349  C   UNK A  22      -4.835   4.062  31.986  0.00  0.00    +0.000 C 
ENDBRANCH 346 348
ENDBRANCH 288 346
ENDBRANCH 287 288
ENDBRANCH 284 285
ENDBRANCH 283 284
ENDBRANCH 277 281
ENDBRANCH 276 277
ENDBRANCH 273 274
BRANCH 273 350
ATOM    350  C   UNK A  22      -8.591  11.457  23.478  0.00  0.00    +0.145 C 
BRANCH 350 351
ATOM    351  C   UNK A  22      -7.304  11.352  24.268  0.00  0.00    +0.367 C 
ATOM    352  O   UNK A  22      -7.369  10.975  25.471  0.00  0.00    -0.246 OA
ATOM    353  O   UNK A  22      -6.223  11.638  23.678  0.00  0.00    -0.246 OA
ENDBRANCH 350 351
ENDBRANCH 273 350
ENDBRANCH 271 273
ENDBRANCH 269 270
BRANCH 269 354
ATOM    354  C   UNK A  22     -10.484  16.860  23.098  0.00  0.00    +0.029 C 
ATOM    355  C   UNK A  22     -10.923  16.543  24.536  0.00  0.00    +0.002 C 
ATOM    356  C   UNK A  22     -10.203  18.356  22.934  0.00  0.00    +0.002 C 
ENDBRANCH 269 354
ENDBRANCH 268 269
ENDBRANCH 265 266
BRANCH 265 357
ATOM    357  C   UNK A  22      -6.283  16.044  18.860  0.00  0.00    +0.029 C 
ATOM    358  C   UNK A  22      -6.837  14.608  18.875  0.00  0.00    +0.002 C 
BRANCH 357 359
ATOM    359  C   UNK A  22      -5.973  16.437  17.384  0.00  0.00    +0.002 C 
ATOM    360  C   UNK A  22      -4.936  17.550  17.177  0.00  0.00    +0.000 C 
ENDBRANCH 357 359
ENDBRANCH 265 357
ENDBRANCH 263 265
ENDBRANCH 261 262
BRANCH 261 361
ATOM    361  C   UNK A  22      -7.822  21.557  20.403  0.00  0.00    +0.181 C 
ATOM    362  C   UNK A  22      -7.695  20.814  21.741  0.00  0.00    +0.038 C 
ATOM    363  O   UNK A  22      -7.270  22.864  20.557  0.00  0.00    -0.221 OA
ENDBRANCH 261 361
ENDBRANCH 259 261
ENDBRANCH 257 258
BRANCH 257 364
ATOM    364  C   UNK A  22      -5.790  21.913  14.824  0.00  0.00    +0.031 C 
BRANCH 364 365
ATOM    365  C   UNK A  22      -6.511  20.560  14.577  0.00  0.00    +0.002 C 
ATOM    366  C   UNK A  22      -8.029  20.777  14.286  0.00  0.00    +0.000 C 
ATOM    367  C   UNK A  22      -5.892  19.852  13.365  0.00  0.00    +0.000 C 
ENDBRANCH 364 365
ENDBRANCH 257 364
ENDBRANCH 255 257
ENDBRANCH 250 254
ENDBRANCH 248 250
ENDBRANCH 246 247
BRANCH 246 368
ATOM    368  C   UNK A  22      -3.811  30.325  14.164  0.00  0.00    +0.035 C 
BRANCH 368 369
ATOM    369  C   UNK A  22      -3.336  29.750  12.843  0.00  0.00    +0.049 C 
BRANCH 369 370
ATOM    370  C   UNK A  22      -1.881  30.046  12.555  0.00  0.00    +0.220 C 
BRANCH 370 371
ATOM    371  N   UNK A  22      -1.623  31.470  12.404  0.00  0.00    -0.087 NA
ATOM    372  C   UNK A  22      -0.432  32.038  12.558  0.00  0.00    +0.535 C 
ATOM    373  N   UNK A  22       0.628  31.302  12.879  0.00  0.00    +0.135 NA
ATOM    374  N   UNK A  22      -0.289  33.342  12.390  0.00  0.00    +0.135 NA
ENDBRANCH 370 371
ENDBRANCH 369 370
ENDBRANCH 368 369
ENDBRANCH 246 368
ENDBRANCH 245 246
ENDBRANCH 242 243
BRANCH 242 375
ATOM    375  C   UNK A  22      -6.953  30.583  18.871  0.00  0.00    +0.145 C 
BRANCH 375 376
ATOM    376  C   UNK A  22      -7.968  31.206  19.817  0.00  0.00    +0.367 C 
ATOM    377  O   UNK A  22      -8.504  30.474  20.676  0.00  0.00    -0.246 OA
ATOM    378  O   UNK A  22      -8.208  32.436  19.712  0.00  0.00    -0.246 OA
ENDBRANCH 375 376
ENDBRANCH 242 375
ENDBRANCH 240 242
ENDBRANCH 238 239
BRANCH 238 379
ATOM    379  C   UNK A  22     -10.350  33.574  16.271  0.00  0.00    +0.041 C 
BRANCH 379 380
ATOM    380  C   UNK A  22     -11.520  34.197  15.498  0.00  0.00    +0.091 C 
BRANCH 380 381
ATOM    381  C   UNK A  22     -12.351  33.184  14.734  0.00  0.00    +0.261 C 
ATOM    382  O   UNK A  22     -12.951  32.267  15.313  0.00  0.00    -0.272 OA
ATOM    383  N   UNK A  22     -12.368  33.307  13.409  0.00  0.00    -0.088 NA
ENDBRANCH 380 381
ENDBRANCH 379 380
ENDBRANCH 238 379
ENDBRANCH 236 238
ENDBRANCH 234 235
BRANCH 234 384
ATOM    384  C   UNK A  22     -10.173  30.308  11.725  0.00  0.00    +0.031 C 
BRANCH 384 385
ATOM    385  C   UNK A  22     -10.328  29.061  10.863  0.00  0.00    +0.004 C 
BRANCH 385 386
ATOM    386  C   UNK A  22     -11.137  29.349   9.600  0.00  0.00    +0.021 C 
BRANCH 386 387
ATOM    387  C   UNK A  22     -11.360  28.121   8.762  0.00  0.00    +0.109 C 
ATOM    388  N   UNK A  22     -12.405  27.251   9.372  0.00  0.00    -0.131 NA
ENDBRANCH 386 387
ENDBRANCH 385 386
ENDBRANCH 384 385
ENDBRANCH 234 384
ENDBRANCH 233 234
ENDBRANCH 230 231
BRANCH 230 389
ATOM    389  C   UNK A  22     -10.089  27.891  17.299  0.00  0.00    +0.120 C 
BRANCH 389 390
ATOM    390  C   UNK A  22     -10.612  29.260  17.713  0.00  0.00    +0.263 C 
ATOM    391  N   UNK A  22     -11.542  29.289  18.651  0.00  0.00    -0.088 NA
ATOM    392  O   UNK A  22     -10.207  30.295  17.171  0.00  0.00    -0.272 OA
ENDBRANCH 389 390
ENDBRANCH 230 389
ENDBRANCH 229 230
ENDBRANCH 223 227
ENDBRANCH 219 220
BRANCH 219 393
ATOM    393  C   UNK A  22     -11.792  21.731  18.873  0.00  0.00    +0.029 C 
ATOM    394  C   UNK A  22     -12.517  23.111  19.031  0.00  0.00    +0.002 C 
BRANCH 393 395
ATOM    395  C   UNK A  22     -12.530  20.600  19.655  0.00  0.00    +0.002 C 
ATOM    396  C   UNK A  22     -12.651  20.828  21.185  0.00  0.00    +0.000 C 
ENDBRANCH 393 395
ENDBRANCH 219 393
ENDBRANCH 217 219
ENDBRANCH 215 216
BRANCH 215 397
ATOM    397  C   UNK A  22     -11.131  17.131  15.274  0.00  0.00    +0.031 C 
BRANCH 397 398
ATOM    398  C   UNK A  22     -10.770  15.653  15.187  0.00  0.00    +0.002 C 
ATOM    399  C   UNK A  22      -9.441  15.369  15.926  0.00  0.00    +0.000 C 
ATOM    400  C   UNK A  22     -10.667  15.253  13.748  0.00  0.00    +0.000 C 
ENDBRANCH 397 398
ENDBRANCH 215 397
ENDBRANCH 214 215
ENDBRANCH 211 212
BRANCH 211 401
ATOM    401  C   UNK A  22     -13.697  16.493  20.378  0.00  0.00    +0.120 C 
BRANCH 401 402
ATOM    402  C   UNK A  22     -14.857  15.851  21.105  0.00  0.00    +0.263 C 
ATOM    403  O   UNK A  22     -15.082  16.156  22.304  0.00  0.00    -0.272 OA
ATOM    404  N   UNK A  22     -15.594  15.005  20.420  0.00  0.00    -0.088 NA
ENDBRANCH 401 402
ENDBRANCH 211 401
ENDBRANCH 209 211
ENDBRANCH 207 208
BRANCH 207 405
ATOM    405  C   UNK A  22     -11.240  11.227  19.211  0.00  0.00    +0.029 C 
ATOM    406  C   UNK A  22     -10.226  12.195  18.575  0.00  0.00    +0.002 C 
BRANCH 405 407
ATOM    407  C   UNK A  22     -10.574  10.020  19.897  0.00  0.00    +0.002 C 
ATOM    408  C   UNK A  22      -9.896   9.004  18.921  0.00  0.00    +0.000 C 
ENDBRANCH 405 407
ENDBRANCH 207 405
ENDBRANCH 206 207
ENDBRANCH   1 204
BRANCH   1 409
ATOM    409  C   UNK A  22     -15.662  10.594  22.384  0.00  0.00    +0.079 C 
BRANCH 409 410
ATOM    410  C   UNK A  22     -15.674  11.723  23.388  0.00  0.00    +0.082 A 
ATOM    411  N   UNK A  22     -16.641  11.797  24.398  0.00  0.00    -0.227 NA
ATOM    412  C   UNK A  22     -16.363  12.897  25.080  0.00  0.00    +0.199 A 
ATOM    413  N   UNK A  22     -15.339  13.560  24.553  0.00  0.00    -0.221 NA
ATOM    414  C   UNK A  22     -14.885  12.823  23.475  0.00  0.00    +0.115 A 
ENDBRANCH 409 410
ENDBRANCH   1 409
TORSDOF 205
REMARK  Name = /Users/mlugowska/PhD/ML_residence_time_prediction/protein_files/5J64_protein.pdb
REMARK  786 active torsions:
REMARK  status: ('A' for Active; 'I' for Inactive)
REMARK    1  A    between atoms: _2  and  _3
REMARK    2  A    between atoms: _2  and  _5
REMARK    3  A    between atoms: _5  and  _6
REMARK    4  A    between atoms: _6  and  _7
REMARK    5  A    between atoms: _10  and  _11
REMARK    6  A    between atoms: _11  and  _12
REMARK    7  A    between atoms: _11  and  _14
REMARK    8  A    between atoms: _17  and  _18
REMARK    9  A    between atoms: _18  and  _19
REMARK   10  A    between atoms: _18  and  _21
REMARK   11  A    between atoms: _21  and  _22
REMARK   12  A    between atoms: _22  and  _23
REMARK   13  A    between atoms: _26  and  _27
REMARK   14  A    between atoms: _27  and  _28
REMARK   15  A    between atoms: _27  and  _30
REMARK   16  A    between atoms: _33  and  _34
REMARK   17  A    between atoms: _34  and  _35
REMARK   18  A    between atoms: _34  and  _37
REMARK   19  A    between atoms: _37  and  _38
REMARK   20  A    between atoms: _44  and  _45
REMARK   21  A    between atoms: _45  and  _46
REMARK   22  A    between atoms: _49  and  _50
REMARK   23  A    between atoms: _50  and  _51
REMARK   24  A    between atoms: _50  and  _53
REMARK   25  A    between atoms: _53  and  _54
REMARK   26  A    between atoms: _60  and  _61
REMARK   27  A    between atoms: _61  and  _62
REMARK   28  A    between atoms: _61  and  _64
REMARK   29  A    between atoms: _64  and  _65
REMARK   30  A    between atoms: _65  and  _66
REMARK   31  A    between atoms: _69  and  _70
REMARK   32  A    between atoms: _70  and  _71
REMARK   33  A    between atoms: _74  and  _75
REMARK   34  A    between atoms: _75  and  _76
REMARK   35  A    between atoms: _75  and  _78
REMARK   36  A    between atoms: _78  and  _79
REMARK   37  A    between atoms: _79  and  _80
REMARK   38  A    between atoms: _83  and  _84
REMARK   39  A    between atoms: _84  and  _85
REMARK   40  A    between atoms: _84  and  _87
REMARK   41  A    between atoms: _87  and  _88
REMARK   42  A    between atoms: _91  and  _92
REMARK   43  A    between atoms: _92  and  _93
REMARK   44  A    between atoms: _96  and  _97
REMARK   45  A    between atoms: _97  and  _98
REMARK   46  A    between atoms: _97  and  _100
REMARK   47  A    between atoms: _100  and  _101
REMARK   48  A    between atoms: _101  and  _102
REMARK   49  A    between atoms: _105  and  _106
REMARK   50  A    between atoms: _106  and  _107
REMARK   51  A    between atoms: _106  and  _109
REMARK   52  A    between atoms: _109  and  _110
REMARK   53  A    between atoms: _113  and  _114
REMARK   54  A    between atoms: _114  and  _115
REMARK   55  A    between atoms: _114  and  _117
REMARK   56  A    between atoms: _117  and  _118
REMARK   57  A    between atoms: _118  and  _119
REMARK   58  A    between atoms: _121  and  _122
REMARK   59  A    between atoms: _122  and  _123
REMARK   60  A    between atoms: _122  and  _125
REMARK   61  A    between atoms: _127  and  _128
REMARK   62  A    between atoms: _128  and  _129
REMARK   63  A    between atoms: _128  and  _131
REMARK   64  A    between atoms: _131  and  _132
REMARK   65  A    between atoms: _135  and  _136
REMARK   66  A    between atoms: _136  and  _137
REMARK   67  A    between atoms: _136  and  _139
REMARK   68  A    between atoms: _139  and  _140
REMARK   69  A    between atoms: _143  and  _144
REMARK   70  A    between atoms: _144  and  _145
REMARK   71  A    between atoms: _144  and  _147
REMARK   72  A    between atoms: _147  and  _148
REMARK   73  A    between atoms: _151  and  _152
REMARK   74  A    between atoms: _152  and  _153
REMARK   75  A    between atoms: _152  and  _155
REMARK   76  A    between atoms: _155  and  _156
REMARK   77  A    between atoms: _159  and  _160
REMARK   78  A    between atoms: _160  and  _161
REMARK   79  A    between atoms: _160  and  _163
REMARK   80  A    between atoms: _166  and  _167
REMARK   81  A    between atoms: _167  and  _170
REMARK   82  A    between atoms: _170  and  _171
REMARK   83  A    between atoms: _181  and  _183
REMARK   84  A    between atoms: _183  and  _184
REMARK   85  A    between atoms: _189  and  _194
REMARK   86  A    between atoms: _192  and  _195
REMARK   87  A    between atoms: _193  and  _194
REMARK   88  A    between atoms: _195  and  _196
REMARK   89  A    between atoms: _201  and  _202
REMARK   90  A    between atoms: _202  and  _203
REMARK   91  A    between atoms: _202  and  _205
REMARK   92  A    between atoms: _207  and  _208
REMARK   93  A    between atoms: _208  and  _209
REMARK   94  A    between atoms: _208  and  _211
REMARK   95  A    between atoms: _211  and  _212
REMARK   96  A    between atoms: _215  and  _216
REMARK   97  A    between atoms: _216  and  _217
REMARK   98  A    between atoms: _216  and  _219
REMARK   99  A    between atoms: _219  and  _220
REMARK  100  A    between atoms: _220  and  _221
REMARK  101  A    between atoms: _221  and  _222
REMARK  102  A    between atoms: _224  and  _225
REMARK  103  A    between atoms: _225  and  _226
REMARK  104  A    between atoms: _225  and  _228
REMARK  105  A    between atoms: _228  and  _229
REMARK  106  A    between atoms: _229  and  _230
REMARK  107  A    between atoms: _233  and  _234
REMARK  108  A    between atoms: _234  and  _235
REMARK  109  A    between atoms: _234  and  _237
REMARK  110  A    between atoms: _237  and  _238
REMARK  111  A    between atoms: _241  and  _242
REMARK  112  A    between atoms: _242  and  _243
REMARK  113  A    between atoms: _242  and  _245
REMARK  114  A    between atoms: _245  and  _246
REMARK  115  A    between atoms: _252  and  _253
REMARK  116  A    between atoms: _253  and  _254
REMARK  117  A    between atoms: _253  and  _256
REMARK  118  A    between atoms: _256  and  _257
REMARK  119  A    between atoms: _260  and  _261
REMARK  120  A    between atoms: _261  and  _262
REMARK  121  A    between atoms: _261  and  _264
REMARK  122  A    between atoms: _264  and  _265
REMARK  123  A    between atoms: _265  and  _266
REMARK  124  A    between atoms: _266  and  _267
REMARK  125  A    between atoms: _271  and  _272
REMARK  126  A    between atoms: _272  and  _273
REMARK  127  A    between atoms: _272  and  _275
REMARK  128  A    between atoms: _275  and  _276
REMARK  129  A    between atoms: _276  and  _277
REMARK  130  A    between atoms: _280  and  _281
REMARK  131  A    between atoms: _281  and  _282
REMARK  132  A    between atoms: _281  and  _284
REMARK  133  A    between atoms: _284  and  _285
REMARK  134  A    between atoms: _288  and  _289
REMARK  135  A    between atoms: _289  and  _292
REMARK  136  A    between atoms: _292  and  _293
REMARK  137  A    between atoms: _309  and  _310
REMARK  138  A    between atoms: _309  and  _312
REMARK  139  A    between atoms: _312  and  _313
REMARK  140  A    between atoms: _316  and  _317
REMARK  141  A    between atoms: _317  and  _318
REMARK  142  A    between atoms: _317  and  _320
REMARK  143  A    between atoms: _322  and  _323
REMARK  144  A    between atoms: _323  and  _324
REMARK  145  A    between atoms: _323  and  _326
REMARK  146  A    between atoms: _328  and  _329
REMARK  147  A    between atoms: _329  and  _330
REMARK  148  A    between atoms: _329  and  _332
REMARK  149  A    between atoms: _332  and  _333
REMARK  150  A    between atoms: _336  and  _337
REMARK  151  A    between atoms: _337  and  _338
REMARK  152  A    between atoms: _341  and  _342
REMARK  153  A    between atoms: _342  and  _343
REMARK  154  A    between atoms: _342  and  _345
REMARK  155  A    between atoms: _345  and  _346
REMARK  156  A    between atoms: _349  and  _350
REMARK  157  A    between atoms: _350  and  _351
REMARK  158  A    between atoms: _350  and  _353
REMARK  159  A    between atoms: _353  and  _354
REMARK  160  A    between atoms: _357  and  _358
REMARK  161  A    between atoms: _358  and  _359
REMARK  162  A    between atoms: _358  and  _361
REMARK  163  A    between atoms: _361  and  _362
REMARK  164  A    between atoms: _362  and  _363
REMARK  165  A    between atoms: _363  and  _364
REMARK  166  A    between atoms: _366  and  _367
REMARK  167  A    between atoms: _367  and  _368
REMARK  168  A    between atoms: _367  and  _370
REMARK  169  A    between atoms: _370  and  _371
REMARK  170  A    between atoms: _374  and  _375
REMARK  171  A    between atoms: _375  and  _376
REMARK  172  A    between atoms: _375  and  _378
REMARK  173  A    between atoms: _378  and  _379
REMARK  174  A    between atoms: _379  and  _380
REMARK  175  A    between atoms: _380  and  _381
REMARK  176  A    between atoms: _385  and  _386
REMARK  177  A    between atoms: _386  and  _387
REMARK  178  A    between atoms: _386  and  _389
REMARK  179  A    between atoms: _389  and  _390
REMARK  180  A    between atoms: _397  and  _398
REMARK  181  A    between atoms: _398  and  _399
REMARK  182  A    between atoms: _398  and  _401
REMARK  183  A    between atoms: _401  and  _402
REMARK  184  A    between atoms: _402  and  _403
REMARK  185  A    between atoms: _406  and  _407
REMARK  186  A    between atoms: _407  and  _408
REMARK  187  A    between atoms: _407  and  _410
REMARK  188  A    between atoms: _412  and  _413
REMARK  189  A    between atoms: _413  and  _414
REMARK  190  A    between atoms: _413  and  _416
REMARK  191  A    between atoms: _416  and  _417
REMARK  192  A    between atoms: _420  and  _421
REMARK  193  A    between atoms: _421  and  _422
REMARK  194  A    between atoms: _421  and  _424
REMARK  195  A    between atoms: _427  and  _428
REMARK  196  A    between atoms: _428  and  _429
REMARK  197  A    between atoms: _428  and  _431
REMARK  198  A    between atoms: _431  and  _432
REMARK  199  A    between atoms: _436  and  _437
REMARK  200  A    between atoms: _442  and  _443
REMARK  201  A    between atoms: _443  and  _444
REMARK  202  A    between atoms: _443  and  _446
REMARK  203  A    between atoms: _448  and  _449
REMARK  204  A    between atoms: _449  and  _450
REMARK  205  A    between atoms: _449  and  _452
REMARK  206  A    between atoms: _452  and  _453
REMARK  207  A    between atoms: _453  and  _454
REMARK  208  A    between atoms: _454  and  _455
REMARK  209  A    between atoms: _457  and  _458
REMARK  210  A    between atoms: _458  and  _459
REMARK  211  A    between atoms: _458  and  _461
REMARK  212  A    between atoms: _461  and  _462
REMARK  213  A    between atoms: _465  and  _466
REMARK  214  A    between atoms: _466  and  _467
REMARK  215  A    between atoms: _466  and  _469
REMARK  216  A    between atoms: _469  and  _470
REMARK  217  A    between atoms: _473  and  _474
REMARK  218  A    between atoms: _474  and  _475
REMARK  219  A    between atoms: _474  and  _477
REMARK  220  A    between atoms: _479  and  _480
REMARK  221  A    between atoms: _480  and  _481
REMARK  222  A    between atoms: _483  and  _484
REMARK  223  A    between atoms: _484  and  _485
REMARK  224  A    between atoms: _484  and  _487
REMARK  225  A    between atoms: _487  and  _488
REMARK  226  A    between atoms: _488  and  _489
REMARK  227  A    between atoms: _489  and  _490
REMARK  228  A    between atoms: _492  and  _493
REMARK  229  A    between atoms: _493  and  _494
REMARK  230  A    between atoms: _493  and  _496
REMARK  231  A    between atoms: _496  and  _497
REMARK  232  A    between atoms: _497  and  _498
REMARK  233  A    between atoms: _501  and  _502
REMARK  234  A    between atoms: _502  and  _503
REMARK  235  A    between atoms: _502  and  _505
REMARK  236  A    between atoms: _505  and  _506
REMARK  237  A    between atoms: _509  and  _510
REMARK  238  A    between atoms: _510  and  _511
REMARK  239  A    between atoms: _510  and  _513
REMARK  240  A    between atoms: _513  and  _514
REMARK  241  A    between atoms: _519  and  _520
REMARK  242  A    between atoms: _520  and  _521
REMARK  243  A    between atoms: _520  and  _523
REMARK  244  A    between atoms: _523  and  _524
REMARK  245  A    between atoms: _527  and  _528
REMARK  246  A    between atoms: _528  and  _529
REMARK  247  A    between atoms: _528  and  _531
REMARK  248  A    between atoms: _531  and  _532
REMARK  249  A    between atoms: _535  and  _536
REMARK  250  A    between atoms: _536  and  _537
REMARK  251  A    between atoms: _536  and  _539
REMARK  252  A    between atoms: _539  and  _540
REMARK  253  A    between atoms: _543  and  _544
REMARK  254  A    between atoms: _544  and  _545
REMARK  255  A    between atoms: _544  and  _547
REMARK  256  A    between atoms: _547  and  _548
REMARK  257  A    between atoms: _552  and  _553
REMARK  258  A    between atoms: _558  and  _559
REMARK  259  A    between atoms: _559  and  _560
REMARK  260  A    between atoms: _559  and  _562
REMARK  261  A    between atoms: _562  and  _563
REMARK  262  A    between atoms: _566  and  _567
REMARK  263  A    between atoms: _567  and  _568
REMARK  264  A    between atoms: _567  and  _570
REMARK  265  A    between atoms: _570  and  _571
REMARK  266  A    between atoms: _571  and  _572
REMARK  267  A    between atoms: _572  and  _573
REMARK  268  A    between atoms: _575  and  _576
REMARK  269  A    between atoms: _576  and  _577
REMARK  270  A    between atoms: _576  and  _579
REMARK  271  A    between atoms: _579  and  _580
REMARK  272  A    between atoms: _580  and  _581
REMARK  273  A    between atoms: _584  and  _585
REMARK  274  A    between atoms: _585  and  _586
REMARK  275  A    between atoms: _585  and  _588
REMARK  276  A    between atoms: _588  and  _589
REMARK  277  A    between atoms: _592  and  _593
REMARK  278  A    between atoms: _593  and  _594
REMARK  279  A    between atoms: _593  and  _596
REMARK  280  A    between atoms: _596  and  _597
REMARK  281  A    between atoms: _597  and  _598
REMARK  282  A    between atoms: _598  and  _599
REMARK  283  A    between atoms: _603  and  _604
REMARK  284  A    between atoms: _604  and  _605
REMARK  285  A    between atoms: _604  and  _607
REMARK  286  A    between atoms: _610  and  _611
REMARK  287  A    between atoms: _611  and  _612
REMARK  288  A    between atoms: _611  and  _614
REMARK  289  A    between atoms: _614  and  _615
REMARK  290  A    between atoms: _618  and  _619
REMARK  291  A    between atoms: _619  and  _620
REMARK  292  A    between atoms: _619  and  _622
REMARK  293  A    between atoms: _625  and  _626
REMARK  294  A    between atoms: _626  and  _627
REMARK  295  A    between atoms: _626  and  _629
REMARK  296  A    between atoms: _629  and  _630
REMARK  297  A    between atoms: _633  and  _634
REMARK  298  A    between atoms: _634  and  _635
REMARK  299  A    between atoms: _634  and  _637
REMARK  300  A    between atoms: _640  and  _641
REMARK  301  A    between atoms: _641  and  _642
REMARK  302  A    between atoms: _641  and  _644
REMARK  303  A    between atoms: _644  and  _645
REMARK  304  A    between atoms: _648  and  _649
REMARK  305  A    between atoms: _649  and  _650
REMARK  306  A    between atoms: _649  and  _652
REMARK  307  A    between atoms: _655  and  _656
REMARK  308  A    between atoms: _656  and  _657
REMARK  309  A    between atoms: _659  and  _660
REMARK  310  A    between atoms: _660  and  _661
REMARK  311  A    between atoms: _660  and  _663
REMARK  312  A    between atoms: _663  and  _664
REMARK  313  A    between atoms: _667  and  _668
REMARK  314  A    between atoms: _668  and  _669
REMARK  315  A    between atoms: _671  and  _672
REMARK  316  A    between atoms: _672  and  _673
REMARK  317  A    between atoms: _672  and  _675
REMARK  318  A    between atoms: _675  and  _676
REMARK  319  A    between atoms: _676  and  _677
REMARK  320  A    between atoms: _679  and  _680
REMARK  321  A    between atoms: _680  and  _681
REMARK  322  A    between atoms: _680  and  _683
REMARK  323  A    between atoms: _686  and  _687
REMARK  324  A    between atoms: _687  and  _688
REMARK  325  A    between atoms: _687  and  _690
REMARK  326  A    between atoms: _690  and  _691
REMARK  327  A    between atoms: _691  and  _692
REMARK  328  A    between atoms: _692  and  _693
REMARK  329  A    between atoms: _695  and  _696
REMARK  330  A    between atoms: _696  and  _697
REMARK  331  A    between atoms: _700  and  _701
REMARK  332  A    between atoms: _701  and  _702
REMARK  333  A    between atoms: _701  and  _704
REMARK  334  A    between atoms: _704  and  _705
REMARK  335  A    between atoms: _708  and  _709
REMARK  336  A    between atoms: _709  and  _710
REMARK  337  A    between atoms: _709  and  _712
REMARK  338  A    between atoms: _712  and  _713
REMARK  339  A    between atoms: _716  and  _717
REMARK  340  A    between atoms: _717  and  _720
REMARK  341  A    between atoms: _720  and  _721
REMARK  342  A    between atoms: _733  and  _734
REMARK  343  A    between atoms: _733  and  _735
REMARK  344  A    between atoms: _741  and  _744
REMARK  345  A    between atoms: _744  and  _745
REMARK  346  A    between atoms: _758  and  _759
REMARK  347  A    between atoms: _758  and  _761
REMARK  348  A    between atoms: _759  and  _760
REMARK  349  A    between atoms: _765  and  _766
REMARK  350  A    between atoms: _768  and  _769
REMARK  351  A    between atoms: _769  and  _770
REMARK  352  A    between atoms: _769  and  _772
REMARK  353  A    between atoms: _775  and  _776
REMARK  354  A    between atoms: _776  and  _777
REMARK  355  A    between atoms: _776  and  _779
REMARK  356  A    between atoms: _779  and  _780
REMARK  357  A    between atoms: _783  and  _784
REMARK  358  A    between atoms: _784  and  _785
REMARK  359  A    between atoms: _788  and  _789
REMARK  360  A    between atoms: _789  and  _790
REMARK  361  A    between atoms: _789  and  _792
REMARK  362  A    between atoms: _792  and  _793
REMARK  363  A    between atoms: _793  and  _794
REMARK  364  A    between atoms: _794  and  _795
REMARK  365  A    between atoms: _797  and  _798
REMARK  366  A    between atoms: _798  and  _799
REMARK  367  A    between atoms: _798  and  _801
REMARK  368  A    between atoms: _803  and  _804
REMARK  369  A    between atoms: _804  and  _805
REMARK  370  A    between atoms: _807  and  _808
REMARK  371  A    between atoms: _808  and  _809
REMARK  372  A    between atoms: _808  and  _811
REMARK  373  A    between atoms: _814  and  _815
REMARK  374  A    between atoms: _815  and  _816
REMARK  375  A    between atoms: _815  and  _818
REMARK  376  A    between atoms: _818  and  _819
REMARK  377  A    between atoms: _819  and  _820
REMARK  378  A    between atoms: _820  and  _821
REMARK  379  A    between atoms: _823  and  _824
REMARK  380  A    between atoms: _824  and  _825
REMARK  381  A    between atoms: _828  and  _829
REMARK  382  A    between atoms: _829  and  _830
REMARK  383  A    between atoms: _829  and  _832
REMARK  384  A    between atoms: _832  and  _833
REMARK  385  A    between atoms: _839  and  _840
REMARK  386  A    between atoms: _840  and  _841
REMARK  387  A    between atoms: _840  and  _843
REMARK  388  A    between atoms: _843  and  _844
REMARK  389  A    between atoms: _844  and  _845
REMARK  390  A    between atoms: _847  and  _848
REMARK  391  A    between atoms: _848  and  _849
REMARK  392  A    between atoms: _848  and  _851
REMARK  393  A    between atoms: _851  and  _852
REMARK  394  A    between atoms: _852  and  _853
REMARK  395  A    between atoms: _856  and  _857
REMARK  396  A    between atoms: _857  and  _858
REMARK  397  A    between atoms: _861  and  _862
REMARK  398  A    between atoms: _862  and  _863
REMARK  399  A    between atoms: _862  and  _865
REMARK  400  A    between atoms: _865  and  _866
REMARK  401  A    between atoms: _869  and  _870
REMARK  402  A    between atoms: _870  and  _871
REMARK  403  A    between atoms: _870  and  _873
REMARK  404  A    between atoms: _873  and  _874
REMARK  405  A    between atoms: _874  and  _875
REMARK  406  A    between atoms: _878  and  _879
REMARK  407  A    between atoms: _879  and  _880
REMARK  408  A    between atoms: _883  and  _884
REMARK  409  A    between atoms: _884  and  _885
REMARK  410  A    between atoms: _887  and  _888
REMARK  411  A    between atoms: _888  and  _889
REMARK  412  A    between atoms: _892  and  _893
REMARK  413  A    between atoms: _893  and  _894
REMARK  414  A    between atoms: _893  and  _896
REMARK  415  A    between atoms: _896  and  _897
REMARK  416  A    between atoms: _900  and  _901
REMARK  417  A    between atoms: _901  and  _902
REMARK  418  A    between atoms: _901  and  _904
REMARK  419  A    between atoms: _904  and  _905
REMARK  420  A    between atoms: _908  and  _909
REMARK  421  A    between atoms: _909  and  _910
REMARK  422  A    between atoms: _909  and  _912
REMARK  423  A    between atoms: _914  and  _915
REMARK  424  A    between atoms: _915  and  _916
REMARK  425  A    between atoms: _915  and  _918
REMARK  426  A    between atoms: _918  and  _919
REMARK  427  A    between atoms: _919  and  _920
REMARK  428  A    between atoms: _922  and  _923
REMARK  429  A    between atoms: _923  and  _924
REMARK  430  A    between atoms: _923  and  _926
REMARK  431  A    between atoms: _926  and  _927
REMARK  432  A    between atoms: _930  and  _931
REMARK  433  A    between atoms: _931  and  _932
REMARK  434  A    between atoms: _934  and  _935
REMARK  435  A    between atoms: _935  and  _936
REMARK  436  A    between atoms: _935  and  _938
REMARK  437  A    between atoms: _938  and  _939
REMARK  438  A    between atoms: _939  and  _940
REMARK  439  A    between atoms: _943  and  _944
REMARK  440  A    between atoms: _944  and  _945
REMARK  441  A    between atoms: _944  and  _947
REMARK  442  A    between atoms: _947  and  _948
REMARK  443  A    between atoms: _954  and  _955
REMARK  444  A    between atoms: _955  and  _956
REMARK  445  A    between atoms: _958  and  _959
REMARK  446  A    between atoms: _959  and  _960
REMARK  447  A    between atoms: _959  and  _962
REMARK  448  A    between atoms: _965  and  _966
REMARK  449  A    between atoms: _966  and  _967
REMARK  450  A    between atoms: _969  and  _970
REMARK  451  A    between atoms: _970  and  _971
REMARK  452  A    between atoms: _970  and  _973
REMARK  453  A    between atoms: _973  and  _974
REMARK  454  A    between atoms: _980  and  _981
REMARK  455  A    between atoms: _981  and  _982
REMARK  456  A    between atoms: _981  and  _984
REMARK  457  A    between atoms: _984  and  _985
REMARK  458  A    between atoms: _992  and  _993
REMARK  459  A    between atoms: _993  and  _994
REMARK  460  A    between atoms: _993  and  _996
REMARK  461  A    between atoms: _998  and  _999
REMARK  462  A    between atoms: _999  and  _1000
REMARK  463  A    between atoms: _1003  and  _1004
REMARK  464  A    between atoms: _1004  and  _1005
REMARK  465  A    between atoms: _1004  and  _1007
REMARK  466  A    between atoms: _1007  and  _1008
REMARK  467  A    between atoms: _1015  and  _1016
REMARK  468  A    between atoms: _1016  and  _1017
REMARK  469  A    between atoms: _1016  and  _1019
REMARK  470  A    between atoms: _1019  and  _1020
REMARK  471  A    between atoms: _1023  and  _1024
REMARK  472  A    between atoms: _1024  and  _1025
REMARK  473  A    between atoms: _1024  and  _1027
REMARK  474  A    between atoms: _1030  and  _1031
REMARK  475  A    between atoms: _1031  and  _1032
REMARK  476  A    between atoms: _1035  and  _1036
REMARK  477  A    between atoms: _1036  and  _1037
REMARK  478  A    between atoms: _1036  and  _1039
REMARK  479  A    between atoms: _1039  and  _1040
REMARK  480  A    between atoms: _1040  and  _1041
REMARK  481  A    between atoms: _1044  and  _1045
REMARK  482  A    between atoms: _1045  and  _1046
REMARK  483  A    between atoms: _1045  and  _1048
REMARK  484  A    between atoms: _1048  and  _1049
REMARK  485  A    between atoms: _1049  and  _1050
REMARK  486  A    between atoms: _1050  and  _1051
REMARK  487  A    between atoms: _1053  and  _1054
REMARK  488  A    between atoms: _1054  and  _1055
REMARK  489  A    between atoms: _1054  and  _1057
REMARK  490  A    between atoms: _1060  and  _1061
REMARK  491  A    between atoms: _1061  and  _1062
REMARK  492  A    between atoms: _1061  and  _1064
REMARK  493  A    between atoms: _1067  and  _1068
REMARK  494  A    between atoms: _1068  and  _1069
REMARK  495  A    between atoms: _1068  and  _1071
REMARK  496  A    between atoms: _1074  and  _1075
REMARK  497  A    between atoms: _1075  and  _1076
REMARK  498  A    between atoms: _1075  and  _1078
REMARK  499  A    between atoms: _1078  and  _1079
REMARK  500  A    between atoms: _1082  and  _1083
REMARK  501  A    between atoms: _1083  and  _1084
REMARK  502  A    between atoms: _1083  and  _1086
REMARK  503  A    between atoms: _1089  and  _1090
REMARK  504  A    between atoms: _1090  and  _1091
REMARK  505  A    between atoms: _1090  and  _1093
REMARK  506  A    between atoms: _1093  and  _1094
REMARK  507  A    between atoms: _1094  and  _1095
REMARK  508  A    between atoms: _1095  and  _1096
REMARK  509  A    between atoms: _1098  and  _1099
REMARK  510  A    between atoms: _1099  and  _1100
REMARK  511  A    between atoms: _1099  and  _1102
REMARK  512  A    between atoms: _1102  and  _1103
REMARK  513  A    between atoms: _1108  and  _1109
REMARK  514  A    between atoms: _1109  and  _1110
REMARK  515  A    between atoms: _1109  and  _1112
REMARK  516  A    between atoms: _1112  and  _1113
REMARK  517  A    between atoms: _1116  and  _1117
REMARK  518  A    between atoms: _1117  and  _1118
REMARK  519  A    between atoms: _1117  and  _1120
REMARK  520  A    between atoms: _1120  and  _1121
REMARK  521  A    between atoms: _1124  and  _1125
REMARK  522  A    between atoms: _1125  and  _1126
REMARK  523  A    between atoms: _1125  and  _1128
REMARK  524  A    between atoms: _1128  and  _1129
REMARK  525  A    between atoms: _1132  and  _1133
REMARK  526  A    between atoms: _1133  and  _1134
REMARK  527  A    between atoms: _1133  and  _1136
REMARK  528  A    between atoms: _1136  and  _1137
REMARK  529  A    between atoms: _1137  and  _1138
REMARK  530  A    between atoms: _1141  and  _1142
REMARK  531  A    between atoms: _1142  and  _1143
REMARK  532  A    between atoms: _1142  and  _1145
REMARK  533  A    between atoms: _1145  and  _1146
REMARK  534  A    between atoms: _1146  and  _1147
REMARK  535  A    between atoms: _1150  and  _1151
REMARK  536  A    between atoms: _1151  and  _1152
REMARK  537  A    between atoms: _1151  and  _1154
REMARK  538  A    between atoms: _1154  and  _1155
REMARK  539  A    between atoms: _1162  and  _1163
REMARK  540  A    between atoms: _1163  and  _1164
REMARK  541  A    between atoms: _1167  and  _1168
REMARK  542  A    between atoms: _1168  and  _1169
REMARK  543  A    between atoms: _1168  and  _1171
REMARK  544  A    between atoms: _1171  and  _1172
REMARK  545  A    between atoms: _1181  and  _1182
REMARK  546  A    between atoms: _1182  and  _1183
REMARK  547  A    between atoms: _1182  and  _1185
REMARK  548  A    between atoms: _1185  and  _1186
REMARK  549  A    between atoms: _1186  and  _1187
REMARK  550  A    between atoms: _1190  and  _1191
REMARK  551  A    between atoms: _1191  and  _1192
REMARK  552  A    between atoms: _1191  and  _1194
REMARK  553  A    between atoms: _1196  and  _1197
REMARK  554  A    between atoms: _1197  and  _1198
REMARK  555  A    between atoms: _1197  and  _1200
REMARK  556  A    between atoms: _1202  and  _1203
REMARK  557  A    between atoms: _1203  and  _1204
REMARK  558  A    between atoms: _1207  and  _1208
REMARK  559  A    between atoms: _1208  and  _1209
REMARK  560  A    between atoms: _1211  and  _1212
REMARK  561  A    between atoms: _1212  and  _1213
REMARK  562  A    between atoms: _1215  and  _1216
REMARK  563  A    between atoms: _1216  and  _1217
REMARK  564  A    between atoms: _1216  and  _1219
REMARK  565  A    between atoms: _1221  and  _1222
REMARK  566  A    between atoms: _1222  and  _1223
REMARK  567  A    between atoms: _1222  and  _1225
REMARK  568  A    between atoms: _1225  and  _1226
REMARK  569  A    between atoms: _1232  and  _1233
REMARK  570  A    between atoms: _1233  and  _1234
REMARK  571  A    between atoms: _1233  and  _1236
REMARK  572  A    between atoms: _1239  and  _1240
REMARK  573  A    between atoms: _1240  and  _1241
REMARK  574  A    between atoms: _1240  and  _1243
REMARK  575  A    between atoms: _1247  and  _1249
REMARK  576  A    between atoms: _1247  and  _1252
REMARK  577  A    between atoms: _1251  and  _1252
REMARK  578  A    between atoms: _1251  and  _1254
REMARK  579  A    between atoms: _1253  and  _1254
REMARK  580  A    between atoms: _1253  and  _1256
REMARK  581  A    between atoms: _1254  and  _1255
REMARK  582  A    between atoms: _1255  and  _1257
REMARK  583  A    between atoms: _1256  and  _1258
REMARK  584  A    between atoms: _1265  and  _1266
REMARK  585  A    between atoms: _1266  and  _1267
REMARK  586  A    between atoms: _1266  and  _1269
REMARK  587  A    between atoms: _1272  and  _1273
REMARK  588  A    between atoms: _1273  and  _1274
REMARK  589  A    between atoms: _1273  and  _1276
REMARK  590  A    between atoms: _1276  and  _1277
REMARK  591  A    between atoms: _1280  and  _1281
REMARK  592  A    between atoms: _1281  and  _1282
REMARK  593  A    between atoms: _1281  and  _1284
REMARK  594  A    between atoms: _1287  and  _1288
REMARK  595  A    between atoms: _1288  and  _1289
REMARK  596  A    between atoms: _1291  and  _1292
REMARK  597  A    between atoms: _1292  and  _1293
REMARK  598  A    between atoms: _1292  and  _1295
REMARK  599  A    between atoms: _1295  and  _1296
REMARK  600  A    between atoms: _1296  and  _1297
REMARK  601  A    between atoms: _1301  and  _1302
REMARK  602  A    between atoms: _1307  and  _1308
REMARK  603  A    between atoms: _1308  and  _1309
REMARK  604  A    between atoms: _1308  and  _1311
REMARK  605  A    between atoms: _1311  and  _1312
REMARK  606  A    between atoms: _1312  and  _1313
REMARK  607  A    between atoms: _1315  and  _1316
REMARK  608  A    between atoms: _1316  and  _1317
REMARK  609  A    between atoms: _1319  and  _1320
REMARK  610  A    between atoms: _1320  and  _1321
REMARK  611  A    between atoms: _1320  and  _1323
REMARK  612  A    between atoms: _1323  and  _1324
REMARK  613  A    between atoms: _1324  and  _1325
REMARK  614  A    between atoms: _1325  and  _1326
REMARK  615  A    between atoms: _1330  and  _1331
REMARK  616  A    between atoms: _1331  and  _1332
REMARK  617  A    between atoms: _1334  and  _1335
REMARK  618  A    between atoms: _1335  and  _1336
REMARK  619  A    between atoms: _1335  and  _1338
REMARK  620  A    between atoms: _1341  and  _1342
REMARK  621  A    between atoms: _1342  and  _1343
REMARK  622  A    between atoms: _1342  and  _1345
REMARK  623  A    between atoms: _1345  and  _1346
REMARK  624  A    between atoms: _1346  and  _1347
REMARK  625  A    between atoms: _1347  and  _1348
REMARK  626  A    between atoms: _1350  and  _1351
REMARK  627  A    between atoms: _1351  and  _1352
REMARK  628  A    between atoms: _1351  and  _1354
REMARK  629  A    between atoms: _1357  and  _1358
REMARK  630  A    between atoms: _1358  and  _1359
REMARK  631  A    between atoms: _1358  and  _1361
REMARK  632  A    between atoms: _1361  and  _1362
REMARK  633  A    between atoms: _1365  and  _1366
REMARK  634  A    between atoms: _1366  and  _1367
REMARK  635  A    between atoms: _1366  and  _1369
REMARK  636  A    between atoms: _1369  and  _1370
REMARK  637  A    between atoms: _1373  and  _1374
REMARK  638  A    between atoms: _1374  and  _1375
REMARK  639  A    between atoms: _1374  and  _1377
REMARK  640  A    between atoms: _1377  and  _1378
REMARK  641  A    between atoms: _1383  and  _1384
REMARK  642  A    between atoms: _1384  and  _1385
REMARK  643  A    between atoms: _1384  and  _1387
REMARK  644  A    between atoms: _1387  and  _1388
REMARK  645  A    between atoms: _1391  and  _1392
REMARK  646  A    between atoms: _1392  and  _1393
REMARK  647  A    between atoms: _1392  and  _1395
REMARK  648  A    between atoms: _1395  and  _1396
REMARK  649  A    between atoms: _1396  and  _1397
REMARK  650  A    between atoms: _1397  and  _1398
REMARK  651  A    between atoms: _1400  and  _1401
REMARK  652  A    between atoms: _1401  and  _1402
REMARK  653  A    between atoms: _1401  and  _1404
REMARK  654  A    between atoms: _1404  and  _1405
REMARK  655  A    between atoms: _1405  and  _1406
REMARK  656  A    between atoms: _1409  and  _1410
REMARK  657  A    between atoms: _1410  and  _1411
REMARK  658  A    between atoms: _1410  and  _1413
REMARK  659  A    between atoms: _1413  and  _1414
REMARK  660  A    between atoms: _1417  and  _1418
REMARK  661  A    between atoms: _1418  and  _1419
REMARK  662  A    between atoms: _1418  and  _1421
REMARK  663  A    between atoms: _1421  and  _1422
REMARK  664  A    between atoms: _1422  and  _1423
REMARK  665  A    between atoms: _1426  and  _1427
REMARK  666  A    between atoms: _1427  and  _1428
REMARK  667  A    between atoms: _1427  and  _1430
REMARK  668  A    between atoms: _1433  and  _1434
REMARK  669  A    between atoms: _1434  and  _1435
REMARK  670  A    between atoms: _1434  and  _1437
REMARK  671  A    between atoms: _1437  and  _1438
REMARK  672  A    between atoms: _1438  and  _1439
REMARK  673  A    between atoms: _1442  and  _1443
REMARK  674  A    between atoms: _1443  and  _1444
REMARK  675  A    between atoms: _1443  and  _1446
REMARK  676  A    between atoms: _1446  and  _1447
REMARK  677  A    between atoms: _1454  and  _1455
REMARK  678  A    between atoms: _1455  and  _1456
REMARK  679  A    between atoms: _1455  and  _1458
REMARK  680  A    between atoms: _1458  and  _1459
REMARK  681  A    between atoms: _1462  and  _1463
REMARK  682  A    between atoms: _1463  and  _1464
REMARK  683  A    between atoms: _1463  and  _1466
REMARK  684  A    between atoms: _1466  and  _1467
REMARK  685  A    between atoms: _1467  and  _1468
REMARK  686  A    between atoms: _1471  and  _1472
REMARK  687  A    between atoms: _1472  and  _1473
REMARK  688  A    between atoms: _1472  and  _1475
REMARK  689  A    between atoms: _1475  and  _1476
REMARK  690  A    between atoms: _1476  and  _1477
REMARK  691  A    between atoms: _1480  and  _1481
REMARK  692  A    between atoms: _1481  and  _1482
REMARK  693  A    between atoms: _1481  and  _1484
REMARK  694  A    between atoms: _1484  and  _1485
REMARK  695  A    between atoms: _1485  and  _1486
REMARK  696  A    between atoms: _1486  and  _1487
REMARK  697  A    between atoms: _1491  and  _1492
REMARK  698  A    between atoms: _1492  and  _1493
REMARK  699  A    between atoms: _1492  and  _1495
REMARK  700  A    between atoms: _1495  and  _1496
REMARK  701  A    between atoms: _1496  and  _1497
REMARK  702  A    between atoms: _1497  and  _1498
REMARK  703  A    between atoms: _1502  and  _1503
REMARK  704  A    between atoms: _1503  and  _1504
REMARK  705  A    between atoms: _1503  and  _1506
REMARK  706  A    between atoms: _1506  and  _1507
REMARK  707  A    between atoms: _1510  and  _1511
REMARK  708  A    between atoms: _1511  and  _1512
REMARK  709  A    between atoms: _1511  and  _1514
REMARK  710  A    between atoms: _1514  and  _1515
REMARK  711  A    between atoms: _1515  and  _1516
REMARK  712  A    between atoms: _1516  and  _1517
REMARK  713  A    between atoms: _1519  and  _1520
REMARK  714  A    between atoms: _1520  and  _1521
REMARK  715  A    between atoms: _1520  and  _1523
REMARK  716  A    between atoms: _1523  and  _1524
REMARK  717  A    between atoms: _1524  and  _1525
REMARK  718  A    between atoms: _1528  and  _1529
REMARK  719  A    between atoms: _1529  and  _1530
REMARK  720  A    between atoms: _1529  and  _1532
REMARK  721  A    between atoms: _1532  and  _1533
REMARK  722  A    between atoms: _1536  and  _1537
REMARK  723  A    between atoms: _1537  and  _1538
REMARK  724  A    between atoms: _1537  and  _1540
REMARK  725  A    between atoms: _1543  and  _1544
REMARK  726  A    between atoms: _1544  and  _1545
REMARK  727  A    between atoms: _1544  and  _1547
REMARK  728  A    between atoms: _1547  and  _1548
REMARK  729  A    between atoms: _1548  and  _1549
REMARK  730  A    between atoms: _1549  and  _1550
REMARK  731  A    between atoms: _1552  and  _1553
REMARK  732  A    between atoms: _1553  and  _1554
REMARK  733  A    between atoms: _1553  and  _1556
REMARK  734  A    between atoms: _1556  and  _1557
REMARK  735  A    between atoms: _1557  and  _1558
REMARK  736  A    between atoms: _1558  and  _1559
REMARK  737  A    between atoms: _1561  and  _1562
REMARK  738  A    between atoms: _1562  and  _1563
REMARK  739  A    between atoms: _1562  and  _1565
REMARK  740  A    between atoms: _1565  and  _1566
REMARK  741  A    between atoms: _1571  and  _1572
REMARK  742  A    between atoms: _1572  and  _1573
REMARK  743  A    between atoms: _1572  and  _1575
REMARK  744  A    between atoms: _1577  and  _1578
REMARK  745  A    between atoms: _1578  and  _1579
REMARK  746  A    between atoms: _1578  and  _1581
REMARK  747  A    between atoms: _1581  and  _1582
REMARK  748  A    between atoms: _1582  and  _1583
REMARK  749  A    between atoms: _1586  and  _1587
REMARK  750  A    between atoms: _1587  and  _1588
REMARK  751  A    between atoms: _1587  and  _1590
REMARK  752  A    between atoms: _1590  and  _1591
REMARK  753  A    between atoms: _1597  and  _1598
REMARK  754  A    between atoms: _1598  and  _1599
REMARK  755  A    between atoms: _1598  and  _1601
REMARK  756  A    between atoms: _1601  and  _1602
REMARK  757  A    between atoms: _1605  and  _1606
REMARK  758  A    between atoms: _1606  and  _1607
REMARK  759  A    between atoms: _1609  and  _1610
REMARK  760  A    between atoms: _1610  and  _1611
REMARK  761  A    between atoms: _1610  and  _1613
REMARK  762  A    between atoms: _1613  and  _1614
REMARK  763  A    between atoms: _1622  and  _1623
REMARK  764  A    between atoms: _1628  and  _1629
REMARK  765  A    between atoms: _1629  and  _1630
REMARK  766  A    between atoms: _1629  and  _1632
REMARK  767  A    between atoms: _1632  and  _1633
REMARK  768  A    between atoms: _1636  and  _1637
REMARK  769  A    between atoms: _1637  and  _1638
REMARK  770  A    between atoms: _1637  and  _1640
REMARK  771  A    between atoms: _1643  and  _1644
REMARK  772  A    between atoms: _1644  and  _1645
REMARK  773  A    between atoms: _1644  and  _1647
REMARK  774  A    between atoms: _1647  and  _1648
REMARK  775  A    between atoms: _1651  and  _1652
REMARK  776  A    between atoms: _1652  and  _1653
REMARK  777  A    between atoms: _1652  and  _1655
REMARK  778  A    between atoms: _1655  and  _1656
REMARK  779  A    between atoms: _1662  and  _1663
REMARK  780  A    between atoms: _1663  and  _1664
REMARK  781  A    between atoms: _1663  and  _1666
REMARK  782  A    between atoms: _1669  and  _1670
REMARK  783  A    between atoms: _1670  and  _1671
REMARK  784  A    between atoms: _1670  and  _1673
REMARK  785  A    between atoms: _1673  and  _1674
REMARK  786  A    between atoms: _1674  and  _1675
REMARK                            x       y       z     vdW  Elec       q    Type
REMARK                         _______ _______ _______ _____ _____    ______ ____
ROOT
ATOM      1  C   UNL     1       9.050  13.303  30.789  0.00  0.00    +0.341 C 
ATOM      2  N   UNL     1       8.593  12.058  30.931  0.00  0.00    -0.080 NA
ATOM      3  O   UNL     1       9.992  13.620  30.034  0.00  0.00    -0.262 OA
ENDROOT
TORSDOF 0
REMARK  Name = /Users/mlugowska/PhD/ML_residence_time_prediction/protein_files/5J64_protein.pdb
REMARK  786 active torsions:
REMARK  status: ('A' for Active; 'I' for Inactive)
REMARK    1  A    between atoms: _2  and  _3
REMARK    2  A    between atoms: _2  and  _5
REMARK    3  A    between atoms: _5  and  _6
REMARK    4  A    between atoms: _6  and  _7
REMARK    5  A    between atoms: _10  and  _11
REMARK    6  A    between atoms: _11  and  _12
REMARK    7  A    between atoms: _11  and  _14
REMARK    8  A    between atoms: _17  and  _18
REMARK    9  A    between atoms: _18  and  _19
REMARK   10  A    between atoms: _18  and  _21
REMARK   11  A    between atoms: _21  and  _22
REMARK   12  A    between atoms: _22  and  _23
REMARK   13  A    between atoms: _26  and  _27
REMARK   14  A    between atoms: _27  and  _28
REMARK   15  A    between atoms: _27  and  _30
REMARK   16  A    between atoms: _33  and  _34
REMARK   17  A    between atoms: _34  and  _35
REMARK   18  A    between atoms: _34  and  _37
REMARK   19  A    between atoms: _37  and  _38
REMARK   20  A    between atoms: _44  and  _45
REMARK   21  A    between atoms: _45  and  _46
REMARK   22  A    between atoms: _49  and  _50
REMARK   23  A    between atoms: _50  and  _51
REMARK   24  A    between atoms: _50  and  _53
REMARK   25  A    between atoms: _53  and  _54
REMARK   26  A    between atoms: _60  and  _61
REMARK   27  A    between atoms: _61  and  _62
REMARK   28  A    between atoms: _61  and  _64
REMARK   29  A    between atoms: _64  and  _65
REMARK   30  A    between atoms: _65  and  _66
REMARK   31  A    between atoms: _69  and  _70
REMARK   32  A    between atoms: _70  and  _71
REMARK   33  A    between atoms: _74  and  _75
REMARK   34  A    between atoms: _75  and  _76
REMARK   35  A    between atoms: _75  and  _78
REMARK   36  A    between atoms: _78  and  _79
REMARK   37  A    between atoms: _79  and  _80
REMARK   38  A    between atoms: _83  and  _84
REMARK   39  A    between atoms: _84  and  _85
REMARK   40  A    between atoms: _84  and  _87
REMARK   41  A    between atoms: _87  and  _88
REMARK   42  A    between atoms: _91  and  _92
REMARK   43  A    between atoms: _92  and  _93
REMARK   44  A    between atoms: _96  and  _97
REMARK   45  A    between atoms: _97  and  _98
REMARK   46  A    between atoms: _97  and  _100
REMARK   47  A    between atoms: _100  and  _101
REMARK   48  A    between atoms: _101  and  _102
REMARK   49  A    between atoms: _105  and  _106
REMARK   50  A    between atoms: _106  and  _107
REMARK   51  A    between atoms: _106  and  _109
REMARK   52  A    between atoms: _109  and  _110
REMARK   53  A    between atoms: _113  and  _114
REMARK   54  A    between atoms: _114  and  _115
REMARK   55  A    between atoms: _114  and  _117
REMARK   56  A    between atoms: _117  and  _118
REMARK   57  A    between atoms: _118  and  _119
REMARK   58  A    between atoms: _121  and  _122
REMARK   59  A    between atoms: _122  and  _123
REMARK   60  A    between atoms: _122  and  _125
REMARK   61  A    between atoms: _127  and  _128
REMARK   62  A    between atoms: _128  and  _129
REMARK   63  A    between atoms: _128  and  _131
REMARK   64  A    between atoms: _131  and  _132
REMARK   65  A    between atoms: _135  and  _136
REMARK   66  A    between atoms: _136  and  _137
REMARK   67  A    between atoms: _136  and  _139
REMARK   68  A    between atoms: _139  and  _140
REMARK   69  A    between atoms: _143  and  _144
REMARK   70  A    between atoms: _144  and  _145
REMARK   71  A    between atoms: _144  and  _147
REMARK   72  A    between atoms: _147  and  _148
REMARK   73  A    between atoms: _151  and  _152
REMARK   74  A    between atoms: _152  and  _153
REMARK   75  A    between atoms: _152  and  _155
REMARK   76  A    between atoms: _155  and  _156
REMARK   77  A    between atoms: _159  and  _160
REMARK   78  A    between atoms: _160  and  _161
REMARK   79  A    between atoms: _160  and  _163
REMARK   80  A    between atoms: _166  and  _167
REMARK   81  A    between atoms: _167  and  _170
REMARK   82  A    between atoms: _170  and  _171
REMARK   83  A    between atoms: _181  and  _183
REMARK   84  A    between atoms: _183  and  _184
REMARK   85  A    between atoms: _189  and  _194
REMARK   86  A    between atoms: _192  and  _195
REMARK   87  A    between atoms: _193  and  _194
REMARK   88  A    between atoms: _195  and  _196
REMARK   89  A    between atoms: _201  and  _202
REMARK   90  A    between atoms: _202  and  _203
REMARK   91  A    between atoms: _202  and  _205
REMARK   92  A    between atoms: _207  and  _208
REMARK   93  A    between atoms: _208  and  _209
REMARK   94  A    between atoms: _208  and  _211
REMARK   95  A    between atoms: _211  and  _212
REMARK   96  A    between atoms: _215  and  _216
REMARK   97  A    between atoms: _216  and  _217
REMARK   98  A    between atoms: _216  and  _219
REMARK   99  A    between atoms: _219  and  _220
REMARK  100  A    between atoms: _220  and  _221
REMARK  101  A    between atoms: _221  and  _222
REMARK  102  A    between atoms: _224  and  _225
REMARK  103  A    between atoms: _225  and  _226
REMARK  104  A    between atoms: _225  and  _228
REMARK  105  A    between atoms: _228  and  _229
REMARK  106  A    between atoms: _229  and  _230
REMARK  107  A    between atoms: _233  and  _234
REMARK  108  A    between atoms: _234  and  _235
REMARK  109  A    between atoms: _234  and  _237
REMARK  110  A    between atoms: _237  and  _238
REMARK  111  A    between atoms: _241  and  _242
REMARK  112  A    between atoms: _242  and  _243
REMARK  113  A    between atoms: _242  and  _245
REMARK  114  A    between atoms: _245  and  _246
REMARK  115  A    between atoms: _252  and  _253
REMARK  116  A    between atoms: _253  and  _254
REMARK  117  A    between atoms: _253  and  _256
REMARK  118  A    between atoms: _256  and  _257
REMARK  119  A    between atoms: _260  and  _261
REMARK  120  A    between atoms: _261  and  _262
REMARK  121  A    between atoms: _261  and  _264
REMARK  122  A    between atoms: _264  and  _265
REMARK  123  A    between atoms: _265  and  _266
REMARK  124  A    between atoms: _266  and  _267
REMARK  125  A    between atoms: _271  and  _272
REMARK  126  A    between atoms: _272  and  _273
REMARK  127  A    between atoms: _272  and  _275
REMARK  128  A    between atoms: _275  and  _276
REMARK  129  A    between atoms: _276  and  _277
REMARK  130  A    between atoms: _280  and  _281
REMARK  131  A    between atoms: _281  and  _282
REMARK  132  A    between atoms: _281  and  _284
REMARK  133  A    between atoms: _284  and  _285
REMARK  134  A    between atoms: _288  and  _289
REMARK  135  A    between atoms: _289  and  _292
REMARK  136  A    between atoms: _292  and  _293
REMARK  137  A    between atoms: _309  and  _310
REMARK  138  A    between atoms: _309  and  _312
REMARK  139  A    between atoms: _312  and  _313
REMARK  140  A    between atoms: _316  and  _317
REMARK  141  A    between atoms: _317  and  _318
REMARK  142  A    between atoms: _317  and  _320
REMARK  143  A    between atoms: _322  and  _323
REMARK  144  A    between atoms: _323  and  _324
REMARK  145  A    between atoms: _323  and  _326
REMARK  146  A    between atoms: _328  and  _329
REMARK  147  A    between atoms: _329  and  _330
REMARK  148  A    between atoms: _329  and  _332
REMARK  149  A    between atoms: _332  and  _333
REMARK  150  A    between atoms: _336  and  _337
REMARK  151  A    between atoms: _337  and  _338
REMARK  152  A    between atoms: _341  and  _342
REMARK  153  A    between atoms: _342  and  _343
REMARK  154  A    between atoms: _342  and  _345
REMARK  155  A    between atoms: _345  and  _346
REMARK  156  A    between atoms: _349  and  _350
REMARK  157  A    between atoms: _350  and  _351
REMARK  158  A    between atoms: _350  and  _353
REMARK  159  A    between atoms: _353  and  _354
REMARK  160  A    between atoms: _357  and  _358
REMARK  161  A    between atoms: _358  and  _359
REMARK  162  A    between atoms: _358  and  _361
REMARK  163  A    between atoms: _361  and  _362
REMARK  164  A    between atoms: _362  and  _363
REMARK  165  A    between atoms: _363  and  _364
REMARK  166  A    between atoms: _366  and  _367
REMARK  167  A    between atoms: _367  and  _368
REMARK  168  A    between atoms: _367  and  _370
REMARK  169  A    between atoms: _370  and  _371
REMARK  170  A    between atoms: _374  and  _375
REMARK  171  A    between atoms: _375  and  _376
REMARK  172  A    between atoms: _375  and  _378
REMARK  173  A    between atoms: _378  and  _379
REMARK  174  A    between atoms: _379  and  _380
REMARK  175  A    between atoms: _380  and  _381
REMARK  176  A    between atoms: _385  and  _386
REMARK  177  A    between atoms: _386  and  _387
REMARK  178  A    between atoms: _386  and  _389
REMARK  179  A    between atoms: _389  and  _390
REMARK  180  A    between atoms: _397  and  _398
REMARK  181  A    between atoms: _398  and  _399
REMARK  182  A    between atoms: _398  and  _401
REMARK  183  A    between atoms: _401  and  _402
REMARK  184  A    between atoms: _402  and  _403
REMARK  185  A    between atoms: _406  and  _407
REMARK  186  A    between atoms: _407  and  _408
REMARK  187  A    between atoms: _407  and  _410
REMARK  188  A    between atoms: _412  and  _413
REMARK  189  A    between atoms: _413  and  _414
REMARK  190  A    between atoms: _413  and  _416
REMARK  191  A    between atoms: _416  and  _417
REMARK  192  A    between atoms: _420  and  _421
REMARK  193  A    between atoms: _421  and  _422
REMARK  194  A    between atoms: _421  and  _424
REMARK  195  A    between atoms: _427  and  _428
REMARK  196  A    between atoms: _428  and  _429
REMARK  197  A    between atoms: _428  and  _431
REMARK  198  A    between atoms: _431  and  _432
REMARK  199  A    between atoms: _436  and  _437
REMARK  200  A    between atoms: _442  and  _443
REMARK  201  A    between atoms: _443  and  _444
REMARK  202  A    between atoms: _443  and  _446
REMARK  203  A    between atoms: _448  and  _449
REMARK  204  A    between atoms: _449  and  _450
REMARK  205  A    between atoms: _449  and  _452
REMARK  206  A    between atoms: _452  and  _453
REMARK  207  A    between atoms: _453  and  _454
REMARK  208  A    between atoms: _454  and  _455
REMARK  209  A    between atoms: _457  and  _458
REMARK  210  A    between atoms: _458  and  _459
REMARK  211  A    between atoms: _458  and  _461
REMARK  212  A    between atoms: _461  and  _462
REMARK  213  A    between atoms: _465  and  _466
REMARK  214  A    between atoms: _466  and  _467
REMARK  215  A    between atoms: _466  and  _469
REMARK  216  A    between atoms: _469  and  _470
REMARK  217  A    between atoms: _473  and  _474
REMARK  218  A    between atoms: _474  and  _475
REMARK  219  A    between atoms: _474  and  _477
REMARK  220  A    between atoms: _479  and  _480
REMARK  221  A    between atoms: _480  and  _481
REMARK  222  A    between atoms: _483  and  _484
REMARK  223  A    between atoms: _484  and  _485
REMARK  224  A    between atoms: _484  and  _487
REMARK  225  A    between atoms: _487  and  _488
REMARK  226  A    between atoms: _488  and  _489
REMARK  227  A    between atoms: _489  and  _490
REMARK  228  A    between atoms: _492  and  _493
REMARK  229  A    between atoms: _493  and  _494
REMARK  230  A    between atoms: _493  and  _496
REMARK  231  A    between atoms: _496  and  _497
REMARK  232  A    between atoms: _497  and  _498
REMARK  233  A    between atoms: _501  and  _502
REMARK  234  A    between atoms: _502  and  _503
REMARK  235  A    between atoms: _502  and  _505
REMARK  236  A    between atoms: _505  and  _506
REMARK  237  A    between atoms: _509  and  _510
REMARK  238  A    between atoms: _510  and  _511
REMARK  239  A    between atoms: _510  and  _513
REMARK  240  A    between atoms: _513  and  _514
REMARK  241  A    between atoms: _519  and  _520
REMARK  242  A    between atoms: _520  and  _521
REMARK  243  A    between atoms: _520  and  _523
REMARK  244  A    between atoms: _523  and  _524
REMARK  245  A    between atoms: _527  and  _528
REMARK  246  A    between atoms: _528  and  _529
REMARK  247  A    between atoms: _528  and  _531
REMARK  248  A    between atoms: _531  and  _532
REMARK  249  A    between atoms: _535  and  _536
REMARK  250  A    between atoms: _536  and  _537
REMARK  251  A    between atoms: _536  and  _539
REMARK  252  A    between atoms: _539  and  _540
REMARK  253  A    between atoms: _543  and  _544
REMARK  254  A    between atoms: _544  and  _545
REMARK  255  A    between atoms: _544  and  _547
REMARK  256  A    between atoms: _547  and  _548
REMARK  257  A    between atoms: _552  and  _553
REMARK  258  A    between atoms: _558  and  _559
REMARK  259  A    between atoms: _559  and  _560
REMARK  260  A    between atoms: _559  and  _562
REMARK  261  A    between atoms: _562  and  _563
REMARK  262  A    between atoms: _566  and  _567
REMARK  263  A    between atoms: _567  and  _568
REMARK  264  A    between atoms: _567  and  _570
REMARK  265  A    between atoms: _570  and  _571
REMARK  266  A    between atoms: _571  and  _572
REMARK  267  A    between atoms: _572  and  _573
REMARK  268  A    between atoms: _575  and  _576
REMARK  269  A    between atoms: _576  and  _577
REMARK  270  A    between atoms: _576  and  _579
REMARK  271  A    between atoms: _579  and  _580
REMARK  272  A    between atoms: _580  and  _581
REMARK  273  A    between atoms: _584  and  _585
REMARK  274  A    between atoms: _585  and  _586
REMARK  275  A    between atoms: _585  and  _588
REMARK  276  A    between atoms: _588  and  _589
REMARK  277  A    between atoms: _592  and  _593
REMARK  278  A    between atoms: _593  and  _594
REMARK  279  A    between atoms: _593  and  _596
REMARK  280  A    between atoms: _596  and  _597
REMARK  281  A    between atoms: _597  and  _598
REMARK  282  A    between atoms: _598  and  _599
REMARK  283  A    between atoms: _603  and  _604
REMARK  284  A    between atoms: _604  and  _605
REMARK  285  A    between atoms: _604  and  _607
REMARK  286  A    between atoms: _610  and  _611
REMARK  287  A    between atoms: _611  and  _612
REMARK  288  A    between atoms: _611  and  _614
REMARK  289  A    between atoms: _614  and  _615
REMARK  290  A    between atoms: _618  and  _619
REMARK  291  A    between atoms: _619  and  _620
REMARK  292  A    between atoms: _619  and  _622
REMARK  293  A    between atoms: _625  and  _626
REMARK  294  A    between atoms: _626  and  _627
REMARK  295  A    between atoms: _626  and  _629
REMARK  296  A    between atoms: _629  and  _630
REMARK  297  A    between atoms: _633  and  _634
REMARK  298  A    between atoms: _634  and  _635
REMARK  299  A    between atoms: _634  and  _637
REMARK  300  A    between atoms: _640  and  _641
REMARK  301  A    between atoms: _641  and  _642
REMARK  302  A    between atoms: _641  and  _644
REMARK  303  A    between atoms: _644  and  _645
REMARK  304  A    between atoms: _648  and  _649
REMARK  305  A    between atoms: _649  and  _650
REMARK  306  A    between atoms: _649  and  _652
REMARK  307  A    between atoms: _655  and  _656
REMARK  308  A    between atoms: _656  and  _657
REMARK  309  A    between atoms: _659  and  _660
REMARK  310  A    between atoms: _660  and  _661
REMARK  311  A    between atoms: _660  and  _663
REMARK  312  A    between atoms: _663  and  _664
REMARK  313  A    between atoms: _667  and  _668
REMARK  314  A    between atoms: _668  and  _669
REMARK  315  A    between atoms: _671  and  _672
REMARK  316  A    between atoms: _672  and  _673
REMARK  317  A    between atoms: _672  and  _675
REMARK  318  A    between atoms: _675  and  _676
REMARK  319  A    between atoms: _676  and  _677
REMARK  320  A    between atoms: _679  and  _680
REMARK  321  A    between atoms: _680  and  _681
REMARK  322  A    between atoms: _680  and  _683
REMARK  323  A    between atoms: _686  and  _687
REMARK  324  A    between atoms: _687  and  _688
REMARK  325  A    between atoms: _687  and  _690
REMARK  326  A    between atoms: _690  and  _691
REMARK  327  A    between atoms: _691  and  _692
REMARK  328  A    between atoms: _692  and  _693
REMARK  329  A    between atoms: _695  and  _696
REMARK  330  A    between atoms: _696  and  _697
REMARK  331  A    between atoms: _700  and  _701
REMARK  332  A    between atoms: _701  and  _702
REMARK  333  A    between atoms: _701  and  _704
REMARK  334  A    between atoms: _704  and  _705
REMARK  335  A    between atoms: _708  and  _709
REMARK  336  A    between atoms: _709  and  _710
REMARK  337  A    between atoms: _709  and  _712
REMARK  338  A    between atoms: _712  and  _713
REMARK  339  A    between atoms: _716  and  _717
REMARK  340  A    between atoms: _717  and  _720
REMARK  341  A    between atoms: _720  and  _721
REMARK  342  A    between atoms: _733  and  _734
REMARK  343  A    between atoms: _733  and  _735
REMARK  344  A    between atoms: _741  and  _744
REMARK  345  A    between atoms: _744  and  _745
REMARK  346  A    between atoms: _758  and  _759
REMARK  347  A    between atoms: _758  and  _761
REMARK  348  A    between atoms: _759  and  _760
REMARK  349  A    between atoms: _765  and  _766
REMARK  350  A    between atoms: _768  and  _769
REMARK  351  A    between atoms: _769  and  _770
REMARK  352  A    between atoms: _769  and  _772
REMARK  353  A    between atoms: _775  and  _776
REMARK  354  A    between atoms: _776  and  _777
REMARK  355  A    between atoms: _776  and  _779
REMARK  356  A    between atoms: _779  and  _780
REMARK  357  A    between atoms: _783  and  _784
REMARK  358  A    between atoms: _784  and  _785
REMARK  359  A    between atoms: _788  and  _789
REMARK  360  A    between atoms: _789  and  _790
REMARK  361  A    between atoms: _789  and  _792
REMARK  362  A    between atoms: _792  and  _793
REMARK  363  A    between atoms: _793  and  _794
REMARK  364  A    between atoms: _794  and  _795
REMARK  365  A    between atoms: _797  and  _798
REMARK  366  A    between atoms: _798  and  _799
REMARK  367  A    between atoms: _798  and  _801
REMARK  368  A    between atoms: _803  and  _804
REMARK  369  A    between atoms: _804  and  _805
REMARK  370  A    between atoms: _807  and  _808
REMARK  371  A    between atoms: _808  and  _809
REMARK  372  A    between atoms: _808  and  _811
REMARK  373  A    between atoms: _814  and  _815
REMARK  374  A    between atoms: _815  and  _816
REMARK  375  A    between atoms: _815  and  _818
REMARK  376  A    between atoms: _818  and  _819
REMARK  377  A    between atoms: _819  and  _820
REMARK  378  A    between atoms: _820  and  _821
REMARK  379  A    between atoms: _823  and  _824
REMARK  380  A    between atoms: _824  and  _825
REMARK  381  A    between atoms: _828  and  _829
REMARK  382  A    between atoms: _829  and  _830
REMARK  383  A    between atoms: _829  and  _832
REMARK  384  A    between atoms: _832  and  _833
REMARK  385  A    between atoms: _839  and  _840
REMARK  386  A    between atoms: _840  and  _841
REMARK  387  A    between atoms: _840  and  _843
REMARK  388  A    between atoms: _843  and  _844
REMARK  389  A    between atoms: _844  and  _845
REMARK  390  A    between atoms: _847  and  _848
REMARK  391  A    between atoms: _848  and  _849
REMARK  392  A    between atoms: _848  and  _851
REMARK  393  A    between atoms: _851  and  _852
REMARK  394  A    between atoms: _852  and  _853
REMARK  395  A    between atoms: _856  and  _857
REMARK  396  A    between atoms: _857  and  _858
REMARK  397  A    between atoms: _861  and  _862
REMARK  398  A    between atoms: _862  and  _863
REMARK  399  A    between atoms: _862  and  _865
REMARK  400  A    between atoms: _865  and  _866
REMARK  401  A    between atoms: _869  and  _870
REMARK  402  A    between atoms: _870  and  _871
REMARK  403  A    between atoms: _870  and  _873
REMARK  404  A    between atoms: _873  and  _874
REMARK  405  A    between atoms: _874  and  _875
REMARK  406  A    between atoms: _878  and  _879
REMARK  407  A    between atoms: _879  and  _880
REMARK  408  A    between atoms: _883  and  _884
REMARK  409  A    between atoms: _884  and  _885
REMARK  410  A    between atoms: _887  and  _888
REMARK  411  A    between atoms: _888  and  _889
REMARK  412  A    between atoms: _892  and  _893
REMARK  413  A    between atoms: _893  and  _894
REMARK  414  A    between atoms: _893  and  _896
REMARK  415  A    between atoms: _896  and  _897
REMARK  416  A    between atoms: _900  and  _901
REMARK  417  A    between atoms: _901  and  _902
REMARK  418  A    between atoms: _901  and  _904
REMARK  419  A    between atoms: _904  and  _905
REMARK  420  A    between atoms: _908  and  _909
REMARK  421  A    between atoms: _909  and  _910
REMARK  422  A    between atoms: _909  and  _912
REMARK  423  A    between atoms: _914  and  _915
REMARK  424  A    between atoms: _915  and  _916
REMARK  425  A    between atoms: _915  and  _918
REMARK  426  A    between atoms: _918  and  _919
REMARK  427  A    between atoms: _919  and  _920
REMARK  428  A    between atoms: _922  and  _923
REMARK  429  A    between atoms: _923  and  _924
REMARK  430  A    between atoms: _923  and  _926
REMARK  431  A    between atoms: _926  and  _927
REMARK  432  A    between atoms: _930  and  _931
REMARK  433  A    between atoms: _931  and  _932
REMARK  434  A    between atoms: _934  and  _935
REMARK  435  A    between atoms: _935  and  _936
REMARK  436  A    between atoms: _935  and  _938
REMARK  437  A    between atoms: _938  and  _939
REMARK  438  A    between atoms: _939  and  _940
REMARK  439  A    between atoms: _943  and  _944
REMARK  440  A    between atoms: _944  and  _945
REMARK  441  A    between atoms: _944  and  _947
REMARK  442  A    between atoms: _947  and  _948
REMARK  443  A    between atoms: _954  and  _955
REMARK  444  A    between atoms: _955  and  _956
REMARK  445  A    between atoms: _958  and  _959
REMARK  446  A    between atoms: _959  and  _960
REMARK  447  A    between atoms: _959  and  _962
REMARK  448  A    between atoms: _965  and  _966
REMARK  449  A    between atoms: _966  and  _967
REMARK  450  A    between atoms: _969  and  _970
REMARK  451  A    between atoms: _970  and  _971
REMARK  452  A    between atoms: _970  and  _973
REMARK  453  A    between atoms: _973  and  _974
REMARK  454  A    between atoms: _980  and  _981
REMARK  455  A    between atoms: _981  and  _982
REMARK  456  A    between atoms: _981  and  _984
REMARK  457  A    between atoms: _984  and  _985
REMARK  458  A    between atoms: _992  and  _993
REMARK  459  A    between atoms: _993  and  _994
REMARK  460  A    between atoms: _993  and  _996
REMARK  461  A    between atoms: _998  and  _999
REMARK  462  A    between atoms: _999  and  _1000
REMARK  463  A    between atoms: _1003  and  _1004
REMARK  464  A    between atoms: _1004  and  _1005
REMARK  465  A    between atoms: _1004  and  _1007
REMARK  466  A    between atoms: _1007  and  _1008
REMARK  467  A    between atoms: _1015  and  _1016
REMARK  468  A    between atoms: _1016  and  _1017
REMARK  469  A    between atoms: _1016  and  _1019
REMARK  470  A    between atoms: _1019  and  _1020
REMARK  471  A    between atoms: _1023  and  _1024
REMARK  472  A    between atoms: _1024  and  _1025
REMARK  473  A    between atoms: _1024  and  _1027
REMARK  474  A    between atoms: _1030  and  _1031
REMARK  475  A    between atoms: _1031  and  _1032
REMARK  476  A    between atoms: _1035  and  _1036
REMARK  477  A    between atoms: _1036  and  _1037
REMARK  478  A    between atoms: _1036  and  _1039
REMARK  479  A    between atoms: _1039  and  _1040
REMARK  480  A    between atoms: _1040  and  _1041
REMARK  481  A    between atoms: _1044  and  _1045
REMARK  482  A    between atoms: _1045  and  _1046
REMARK  483  A    between atoms: _1045  and  _1048
REMARK  484  A    between atoms: _1048  and  _1049
REMARK  485  A    between atoms: _1049  and  _1050
REMARK  486  A    between atoms: _1050  and  _1051
REMARK  487  A    between atoms: _1053  and  _1054
REMARK  488  A    between atoms: _1054  and  _1055
REMARK  489  A    between atoms: _1054  and  _1057
REMARK  490  A    between atoms: _1060  and  _1061
REMARK  491  A    between atoms: _1061  and  _1062
REMARK  492  A    between atoms: _1061  and  _1064
REMARK  493  A    between atoms: _1067  and  _1068
REMARK  494  A    between atoms: _1068  and  _1069
REMARK  495  A    between atoms: _1068  and  _1071
REMARK  496  A    between atoms: _1074  and  _1075
REMARK  497  A    between atoms: _1075  and  _1076
REMARK  498  A    between atoms: _1075  and  _1078
REMARK  499  A    between atoms: _1078  and  _1079
REMARK  500  A    between atoms: _1082  and  _1083
REMARK  501  A    between atoms: _1083  and  _1084
REMARK  502  A    between atoms: _1083  and  _1086
REMARK  503  A    between atoms: _1089  and  _1090
REMARK  504  A    between atoms: _1090  and  _1091
REMARK  505  A    between atoms: _1090  and  _1093
REMARK  506  A    between atoms: _1093  and  _1094
REMARK  507  A    between atoms: _1094  and  _1095
REMARK  508  A    between atoms: _1095  and  _1096
REMARK  509  A    between atoms: _1098  and  _1099
REMARK  510  A    between atoms: _1099  and  _1100
REMARK  511  A    between atoms: _1099  and  _1102
REMARK  512  A    between atoms: _1102  and  _1103
REMARK  513  A    between atoms: _1108  and  _1109
REMARK  514  A    between atoms: _1109  and  _1110
REMARK  515  A    between atoms: _1109  and  _1112
REMARK  516  A    between atoms: _1112  and  _1113
REMARK  517  A    between atoms: _1116  and  _1117
REMARK  518  A    between atoms: _1117  and  _1118
REMARK  519  A    between atoms: _1117  and  _1120
REMARK  520  A    between atoms: _1120  and  _1121
REMARK  521  A    between atoms: _1124  and  _1125
REMARK  522  A    between atoms: _1125  and  _1126
REMARK  523  A    between atoms: _1125  and  _1128
REMARK  524  A    between atoms: _1128  and  _1129
REMARK  525  A    between atoms: _1132  and  _1133
REMARK  526  A    between atoms: _1133  and  _1134
REMARK  527  A    between atoms: _1133  and  _1136
REMARK  528  A    between atoms: _1136  and  _1137
REMARK  529  A    between atoms: _1137  and  _1138
REMARK  530  A    between atoms: _1141  and  _1142
REMARK  531  A    between atoms: _1142  and  _1143
REMARK  532  A    between atoms: _1142  and  _1145
REMARK  533  A    between atoms: _1145  and  _1146
REMARK  534  A    between atoms: _1146  and  _1147
REMARK  535  A    between atoms: _1150  and  _1151
REMARK  536  A    between atoms: _1151  and  _1152
REMARK  537  A    between atoms: _1151  and  _1154
REMARK  538  A    between atoms: _1154  and  _1155
REMARK  539  A    between atoms: _1162  and  _1163
REMARK  540  A    between atoms: _1163  and  _1164
REMARK  541  A    between atoms: _1167  and  _1168
REMARK  542  A    between atoms: _1168  and  _1169
REMARK  543  A    between atoms: _1168  and  _1171
REMARK  544  A    between atoms: _1171  and  _1172
REMARK  545  A    between atoms: _1181  and  _1182
REMARK  546  A    between atoms: _1182  and  _1183
REMARK  547  A    between atoms: _1182  and  _1185
REMARK  548  A    between atoms: _1185  and  _1186
REMARK  549  A    between atoms: _1186  and  _1187
REMARK  550  A    between atoms: _1190  and  _1191
REMARK  551  A    between atoms: _1191  and  _1192
REMARK  552  A    between atoms: _1191  and  _1194
REMARK  553  A    between atoms: _1196  and  _1197
REMARK  554  A    between atoms: _1197  and  _1198
REMARK  555  A    between atoms: _1197  and  _1200
REMARK  556  A    between atoms: _1202  and  _1203
REMARK  557  A    between atoms: _1203  and  _1204
REMARK  558  A    between atoms: _1207  and  _1208
REMARK  559  A    between atoms: _1208  and  _1209
REMARK  560  A    between atoms: _1211  and  _1212
REMARK  561  A    between atoms: _1212  and  _1213
REMARK  562  A    between atoms: _1215  and  _1216
REMARK  563  A    between atoms: _1216  and  _1217
REMARK  564  A    between atoms: _1216  and  _1219
REMARK  565  A    between atoms: _1221  and  _1222
REMARK  566  A    between atoms: _1222  and  _1223
REMARK  567  A    between atoms: _1222  and  _1225
REMARK  568  A    between atoms: _1225  and  _1226
REMARK  569  A    between atoms: _1232  and  _1233
REMARK  570  A    between atoms: _1233  and  _1234
REMARK  571  A    between atoms: _1233  and  _1236
REMARK  572  A    between atoms: _1239  and  _1240
REMARK  573  A    between atoms: _1240  and  _1241
REMARK  574  A    between atoms: _1240  and  _1243
REMARK  575  A    between atoms: _1247  and  _1249
REMARK  576  A    between atoms: _1247  and  _1252
REMARK  577  A    between atoms: _1251  and  _1252
REMARK  578  A    between atoms: _1251  and  _1254
REMARK  579  A    between atoms: _1253  and  _1254
REMARK  580  A    between atoms: _1253  and  _1256
REMARK  581  A    between atoms: _1254  and  _1255
REMARK  582  A    between atoms: _1255  and  _1257
REMARK  583  A    between atoms: _1256  and  _1258
REMARK  584  A    between atoms: _1265  and  _1266
REMARK  585  A    between atoms: _1266  and  _1267
REMARK  586  A    between atoms: _1266  and  _1269
REMARK  587  A    between atoms: _1272  and  _1273
REMARK  588  A    between atoms: _1273  and  _1274
REMARK  589  A    between atoms: _1273  and  _1276
REMARK  590  A    between atoms: _1276  and  _1277
REMARK  591  A    between atoms: _1280  and  _1281
REMARK  592  A    between atoms: _1281  and  _1282
REMARK  593  A    between atoms: _1281  and  _1284
REMARK  594  A    between atoms: _1287  and  _1288
REMARK  595  A    between atoms: _1288  and  _1289
REMARK  596  A    between atoms: _1291  and  _1292
REMARK  597  A    between atoms: _1292  and  _1293
REMARK  598  A    between atoms: _1292  and  _1295
REMARK  599  A    between atoms: _1295  and  _1296
REMARK  600  A    between atoms: _1296  and  _1297
REMARK  601  A    between atoms: _1301  and  _1302
REMARK  602  A    between atoms: _1307  and  _1308
REMARK  603  A    between atoms: _1308  and  _1309
REMARK  604  A    between atoms: _1308  and  _1311
REMARK  605  A    between atoms: _1311  and  _1312
REMARK  606  A    between atoms: _1312  and  _1313
REMARK  607  A    between atoms: _1315  and  _1316
REMARK  608  A    between atoms: _1316  and  _1317
REMARK  609  A    between atoms: _1319  and  _1320
REMARK  610  A    between atoms: _1320  and  _1321
REMARK  611  A    between atoms: _1320  and  _1323
REMARK  612  A    between atoms: _1323  and  _1324
REMARK  613  A    between atoms: _1324  and  _1325
REMARK  614  A    between atoms: _1325  and  _1326
REMARK  615  A    between atoms: _1330  and  _1331
REMARK  616  A    between atoms: _1331  and  _1332
REMARK  617  A    between atoms: _1334  and  _1335
REMARK  618  A    between atoms: _1335  and  _1336
REMARK  619  A    between atoms: _1335  and  _1338
REMARK  620  A    between atoms: _1341  and  _1342
REMARK  621  A    between atoms: _1342  and  _1343
REMARK  622  A    between atoms: _1342  and  _1345
REMARK  623  A    between atoms: _1345  and  _1346
REMARK  624  A    between atoms: _1346  and  _1347
REMARK  625  A    between atoms: _1347  and  _1348
REMARK  626  A    between atoms: _1350  and  _1351
REMARK  627  A    between atoms: _1351  and  _1352
REMARK  628  A    between atoms: _1351  and  _1354
REMARK  629  A    between atoms: _1357  and  _1358
REMARK  630  A    between atoms: _1358  and  _1359
REMARK  631  A    between atoms: _1358  and  _1361
REMARK  632  A    between atoms: _1361  and  _1362
REMARK  633  A    between atoms: _1365  and  _1366
REMARK  634  A    between atoms: _1366  and  _1367
REMARK  635  A    between atoms: _1366  and  _1369
REMARK  636  A    between atoms: _1369  and  _1370
REMARK  637  A    between atoms: _1373  and  _1374
REMARK  638  A    between atoms: _1374  and  _1375
REMARK  639  A    between atoms: _1374  and  _1377
REMARK  640  A    between atoms: _1377  and  _1378
REMARK  641  A    between atoms: _1383  and  _1384
REMARK  642  A    between atoms: _1384  and  _1385
REMARK  643  A    between atoms: _1384  and  _1387
REMARK  644  A    between atoms: _1387  and  _1388
REMARK  645  A    between atoms: _1391  and  _1392
REMARK  646  A    between atoms: _1392  and  _1393
REMARK  647  A    between atoms: _1392  and  _1395
REMARK  648  A    between atoms: _1395  and  _1396
REMARK  649  A    between atoms: _1396  and  _1397
REMARK  650  A    between atoms: _1397  and  _1398
REMARK  651  A    between atoms: _1400  and  _1401
REMARK  652  A    between atoms: _1401  and  _1402
REMARK  653  A    between atoms: _1401  and  _1404
REMARK  654  A    between atoms: _1404  and  _1405
REMARK  655  A    between atoms: _1405  and  _1406
REMARK  656  A    between atoms: _1409  and  _1410
REMARK  657  A    between atoms: _1410  and  _1411
REMARK  658  A    between atoms: _1410  and  _1413
REMARK  659  A    between atoms: _1413  and  _1414
REMARK  660  A    between atoms: _1417  and  _1418
REMARK  661  A    between atoms: _1418  and  _1419
REMARK  662  A    between atoms: _1418  and  _1421
REMARK  663  A    between atoms: _1421  and  _1422
REMARK  664  A    between atoms: _1422  and  _1423
REMARK  665  A    between atoms: _1426  and  _1427
REMARK  666  A    between atoms: _1427  and  _1428
REMARK  667  A    between atoms: _1427  and  _1430
REMARK  668  A    between atoms: _1433  and  _1434
REMARK  669  A    between atoms: _1434  and  _1435
REMARK  670  A    between atoms: _1434  and  _1437
REMARK  671  A    between atoms: _1437  and  _1438
REMARK  672  A    between atoms: _1438  and  _1439
REMARK  673  A    between atoms: _1442  and  _1443
REMARK  674  A    between atoms: _1443  and  _1444
REMARK  675  A    between atoms: _1443  and  _1446
REMARK  676  A    between atoms: _1446  and  _1447
REMARK  677  A    between atoms: _1454  and  _1455
REMARK  678  A    between atoms: _1455  and  _1456
REMARK  679  A    between atoms: _1455  and  _1458
REMARK  680  A    between atoms: _1458  and  _1459
REMARK  681  A    between atoms: _1462  and  _1463
REMARK  682  A    between atoms: _1463  and  _1464
REMARK  683  A    between atoms: _1463  and  _1466
REMARK  684  A    between atoms: _1466  and  _1467
REMARK  685  A    between atoms: _1467  and  _1468
REMARK  686  A    between atoms: _1471  and  _1472
REMARK  687  A    between atoms: _1472  and  _1473
REMARK  688  A    between atoms: _1472  and  _1475
REMARK  689  A    between atoms: _1475  and  _1476
REMARK  690  A    between atoms: _1476  and  _1477
REMARK  691  A    between atoms: _1480  and  _1481
REMARK  692  A    between atoms: _1481  and  _1482
REMARK  693  A    between atoms: _1481  and  _1484
REMARK  694  A    between atoms: _1484  and  _1485
REMARK  695  A    between atoms: _1485  and  _1486
REMARK  696  A    between atoms: _1486  and  _1487
REMARK  697  A    between atoms: _1491  and  _1492
REMARK  698  A    between atoms: _1492  and  _1493
REMARK  699  A    between atoms: _1492  and  _1495
REMARK  700  A    between atoms: _1495  and  _1496
REMARK  701  A    between atoms: _1496  and  _1497
REMARK  702  A    between atoms: _1497  and  _1498
REMARK  703  A    between atoms: _1502  and  _1503
REMARK  704  A    between atoms: _1503  and  _1504
REMARK  705  A    between atoms: _1503  and  _1506
REMARK  706  A    between atoms: _1506  and  _1507
REMARK  707  A    between atoms: _1510  and  _1511
REMARK  708  A    between atoms: _1511  and  _1512
REMARK  709  A    between atoms: _1511  and  _1514
REMARK  710  A    between atoms: _1514  and  _1515
REMARK  711  A    between atoms: _1515  and  _1516
REMARK  712  A    between atoms: _1516  and  _1517
REMARK  713  A    between atoms: _1519  and  _1520
REMARK  714  A    between atoms: _1520  and  _1521
REMARK  715  A    between atoms: _1520  and  _1523
REMARK  716  A    between atoms: _1523  and  _1524
REMARK  717  A    between atoms: _1524  and  _1525
REMARK  718  A    between atoms: _1528  and  _1529
REMARK  719  A    between atoms: _1529  and  _1530
REMARK  720  A    between atoms: _1529  and  _1532
REMARK  721  A    between atoms: _1532  and  _1533
REMARK  722  A    between atoms: _1536  and  _1537
REMARK  723  A    between atoms: _1537  and  _1538
REMARK  724  A    between atoms: _1537  and  _1540
REMARK  725  A    between atoms: _1543  and  _1544
REMARK  726  A    between atoms: _1544  and  _1545
REMARK  727  A    between atoms: _1544  and  _1547
REMARK  728  A    between atoms: _1547  and  _1548
REMARK  729  A    between atoms: _1548  and  _1549
REMARK  730  A    between atoms: _1549  and  _1550
REMARK  731  A    between atoms: _1552  and  _1553
REMARK  732  A    between atoms: _1553  and  _1554
REMARK  733  A    between atoms: _1553  and  _1556
REMARK  734  A    between atoms: _1556  and  _1557
REMARK  735  A    between atoms: _1557  and  _1558
REMARK  736  A    between atoms: _1558  and  _1559
REMARK  737  A    between atoms: _1561  and  _1562
REMARK  738  A    between atoms: _1562  and  _1563
REMARK  739  A    between atoms: _1562  and  _1565
REMARK  740  A    between atoms: _1565  and  _1566
REMARK  741  A    between atoms: _1571  and  _1572
REMARK  742  A    between atoms: _1572  and  _1573
REMARK  743  A    between atoms: _1572  and  _1575
REMARK  744  A    between atoms: _1577  and  _1578
REMARK  745  A    between atoms: _1578  and  _1579
REMARK  746  A    between atoms: _1578  and  _1581
REMARK  747  A    between atoms: _1581  and  _1582
REMARK  748  A    between atoms: _1582  and  _1583
REMARK  749  A    between atoms: _1586  and  _1587
REMARK  750  A    between atoms: _1587  and  _1588
REMARK  751  A    between atoms: _1587  and  _1590
REMARK  752  A    between atoms: _1590  and  _1591
REMARK  753  A    between atoms: _1597  and  _1598
REMARK  754  A    between atoms: _1598  and  _1599
REMARK  755  A    between atoms: _1598  and  _1601
REMARK  756  A    between atoms: _1601  and  _1602
REMARK  757  A    between atoms: _1605  and  _1606
REMARK  758  A    between atoms: _1606  and  _1607
REMARK  759  A    between atoms: _1609  and  _1610
REMARK  760  A    between atoms: _1610  and  _1611
REMARK  761  A    between atoms: _1610  and  _1613
REMARK  762  A    between atoms: _1613  and  _1614
REMARK  763  A    between atoms: _1622  and  _1623
REMARK  764  A    between atoms: _1628  and  _1629
REMARK  765  A    between atoms: _1629  and  _1630
REMARK  766  A    between atoms: _1629  and  _1632
REMARK  767  A    between atoms: _1632  and  _1633
REMARK  768  A    between atoms: _1636  and  _1637
REMARK  769  A    between atoms: _1637  and  _1638
REMARK  770  A    between atoms: _1637  and  _1640
REMARK  771  A    between atoms: _1643  and  _1644
REMARK  772  A    between atoms: _1644  and  _1645
REMARK  773  A    between atoms: _1644  and  _1647
REMARK  774  A    between atoms: _1647  and  _1648
REMARK  775  A    between atoms: _1651  and  _1652
REMARK  776  A    between atoms: _1652  and  _1653
REMARK  777  A    between atoms: _1652  and  _1655
REMARK  778  A    between atoms: _1655  and  _1656
REMARK  779  A    between atoms: _1662  and  _1663
REMARK  780  A    between atoms: _1663  and  _1664
REMARK  781  A    between atoms: _1663  and  _1666
REMARK  782  A    between atoms: _1669  and  _1670
REMARK  783  A    between atoms: _1670  and  _1671
REMARK  784  A    between atoms: _1670  and  _1673
REMARK  785  A    between atoms: _1673  and  _1674
REMARK  786  A    between atoms: _1674  and  _1675
REMARK                            x       y       z     vdW  Elec       q    Type
REMARK                         _______ _______ _______ _____ _____    ______ ____
ROOT
ATOM      1  N   UNL     1       8.627  12.024  30.933  0.00  0.00    -0.130 NA
ATOM      2  C   UNL     1       9.173  10.912  30.281  0.00  0.00    +0.130 C 
ENDROOT
TORSDOF 0
REMARK  Name = /Users/mlugowska/PhD/ML_residence_time_prediction/protein_files/5J64_protein.pdb
REMARK  786 active torsions:
REMARK  status: ('A' for Active; 'I' for Inactive)
REMARK    1  A    between atoms: _2  and  _3
REMARK    2  A    between atoms: _2  and  _5
REMARK    3  A    between atoms: _5  and  _6
REMARK    4  A    between atoms: _6  and  _7
REMARK    5  A    between atoms: _10  and  _11
REMARK    6  A    between atoms: _11  and  _12
REMARK    7  A    between atoms: _11  and  _14
REMARK    8  A    between atoms: _17  and  _18
REMARK    9  A    between atoms: _18  and  _19
REMARK   10  A    between atoms: _18  and  _21
REMARK   11  A    between atoms: _21  and  _22
REMARK   12  A    between atoms: _22  and  _23
REMARK   13  A    between atoms: _26  and  _27
REMARK   14  A    between atoms: _27  and  _28
REMARK   15  A    between atoms: _27  and  _30
REMARK   16  A    between atoms: _33  and  _34
REMARK   17  A    between atoms: _34  and  _35
REMARK   18  A    between atoms: _34  and  _37
REMARK   19  A    between atoms: _37  and  _38
REMARK   20  A    between atoms: _44  and  _45
REMARK   21  A    between atoms: _45  and  _46
REMARK   22  A    between atoms: _49  and  _50
REMARK   23  A    between atoms: _50  and  _51
REMARK   24  A    between atoms: _50  and  _53
REMARK   25  A    between atoms: _53  and  _54
REMARK   26  A    between atoms: _60  and  _61
REMARK   27  A    between atoms: _61  and  _62
REMARK   28  A    between atoms: _61  and  _64
REMARK   29  A    between atoms: _64  and  _65
REMARK   30  A    between atoms: _65  and  _66
REMARK   31  A    between atoms: _69  and  _70
REMARK   32  A    between atoms: _70  and  _71
REMARK   33  A    between atoms: _74  and  _75
REMARK   34  A    between atoms: _75  and  _76
REMARK   35  A    between atoms: _75  and  _78
REMARK   36  A    between atoms: _78  and  _79
REMARK   37  A    between atoms: _79  and  _80
REMARK   38  A    between atoms: _83  and  _84
REMARK   39  A    between atoms: _84  and  _85
REMARK   40  A    between atoms: _84  and  _87
REMARK   41  A    between atoms: _87  and  _88
REMARK   42  A    between atoms: _91  and  _92
REMARK   43  A    between atoms: _92  and  _93
REMARK   44  A    between atoms: _96  and  _97
REMARK   45  A    between atoms: _97  and  _98
REMARK   46  A    between atoms: _97  and  _100
REMARK   47  A    between atoms: _100  and  _101
REMARK   48  A    between atoms: _101  and  _102
REMARK   49  A    between atoms: _105  and  _106
REMARK   50  A    between atoms: _106  and  _107
REMARK   51  A    between atoms: _106  and  _109
REMARK   52  A    between atoms: _109  and  _110
REMARK   53  A    between atoms: _113  and  _114
REMARK   54  A    between atoms: _114  and  _115
REMARK   55  A    between atoms: _114  and  _117
REMARK   56  A    between atoms: _117  and  _118
REMARK   57  A    between atoms: _118  and  _119
REMARK   58  A    between atoms: _121  and  _122
REMARK   59  A    between atoms: _122  and  _123
REMARK   60  A    between atoms: _122  and  _125
REMARK   61  A    between atoms: _127  and  _128
REMARK   62  A    between atoms: _128  and  _129
REMARK   63  A    between atoms: _128  and  _131
REMARK   64  A    between atoms: _131  and  _132
REMARK   65  A    between atoms: _135  and  _136
REMARK   66  A    between atoms: _136  and  _137
REMARK   67  A    between atoms: _136  and  _139
REMARK   68  A    between atoms: _139  and  _140
REMARK   69  A    between atoms: _143  and  _144
REMARK   70  A    between atoms: _144  and  _145
REMARK   71  A    between atoms: _144  and  _147
REMARK   72  A    between atoms: _147  and  _148
REMARK   73  A    between atoms: _151  and  _152
REMARK   74  A    between atoms: _152  and  _153
REMARK   75  A    between atoms: _152  and  _155
REMARK   76  A    between atoms: _155  and  _156
REMARK   77  A    between atoms: _159  and  _160
REMARK   78  A    between atoms: _160  and  _161
REMARK   79  A    between atoms: _160  and  _163
REMARK   80  A    between atoms: _166  and  _167
REMARK   81  A    between atoms: _167  and  _170
REMARK   82  A    between atoms: _170  and  _171
REMARK   83  A    between atoms: _181  and  _183
REMARK   84  A    between atoms: _183  and  _184
REMARK   85  A    between atoms: _189  and  _194
REMARK   86  A    between atoms: _192  and  _195
REMARK   87  A    between atoms: _193  and  _194
REMARK   88  A    between atoms: _195  and  _196
REMARK   89  A    between atoms: _201  and  _202
REMARK   90  A    between atoms: _202  and  _203
REMARK   91  A    between atoms: _202  and  _205
REMARK   92  A    between atoms: _207  and  _208
REMARK   93  A    between atoms: _208  and  _209
REMARK   94  A    between atoms: _208  and  _211
REMARK   95  A    between atoms: _211  and  _212
REMARK   96  A    between atoms: _215  and  _216
REMARK   97  A    between atoms: _216  and  _217
REMARK   98  A    between atoms: _216  and  _219
REMARK   99  A    between atoms: _219  and  _220
REMARK  100  A    between atoms: _220  and  _221
REMARK  101  A    between atoms: _221  and  _222
REMARK  102  A    between atoms: _224  and  _225
REMARK  103  A    between atoms: _225  and  _226
REMARK  104  A    between atoms: _225  and  _228
REMARK  105  A    between atoms: _228  and  _229
REMARK  106  A    between atoms: _229  and  _230
REMARK  107  A    between atoms: _233  and  _234
REMARK  108  A    between atoms: _234  and  _235
REMARK  109  A    between atoms: _234  and  _237
REMARK  110  A    between atoms: _237  and  _238
REMARK  111  A    between atoms: _241  and  _242
REMARK  112  A    between atoms: _242  and  _243
REMARK  113  A    between atoms: _242  and  _245
REMARK  114  A    between atoms: _245  and  _246
REMARK  115  A    between atoms: _252  and  _253
REMARK  116  A    between atoms: _253  and  _254
REMARK  117  A    between atoms: _253  and  _256
REMARK  118  A    between atoms: _256  and  _257
REMARK  119  A    between atoms: _260  and  _261
REMARK  120  A    between atoms: _261  and  _262
REMARK  121  A    between atoms: _261  and  _264
REMARK  122  A    between atoms: _264  and  _265
REMARK  123  A    between atoms: _265  and  _266
REMARK  124  A    between atoms: _266  and  _267
REMARK  125  A    between atoms: _271  and  _272
REMARK  126  A    between atoms: _272  and  _273
REMARK  127  A    between atoms: _272  and  _275
REMARK  128  A    between atoms: _275  and  _276
REMARK  129  A    between atoms: _276  and  _277
REMARK  130  A    between atoms: _280  and  _281
REMARK  131  A    between atoms: _281  and  _282
REMARK  132  A    between atoms: _281  and  _284
REMARK  133  A    between atoms: _284  and  _285
REMARK  134  A    between atoms: _288  and  _289
REMARK  135  A    between atoms: _289  and  _292
REMARK  136  A    between atoms: _292  and  _293
REMARK  137  A    between atoms: _309  and  _310
REMARK  138  A    between atoms: _309  and  _312
REMARK  139  A    between atoms: _312  and  _313
REMARK  140  A    between atoms: _316  and  _317
REMARK  141  A    between atoms: _317  and  _318
REMARK  142  A    between atoms: _317  and  _320
REMARK  143  A    between atoms: _322  and  _323
REMARK  144  A    between atoms: _323  and  _324
REMARK  145  A    between atoms: _323  and  _326
REMARK  146  A    between atoms: _328  and  _329
REMARK  147  A    between atoms: _329  and  _330
REMARK  148  A    between atoms: _329  and  _332
REMARK  149  A    between atoms: _332  and  _333
REMARK  150  A    between atoms: _336  and  _337
REMARK  151  A    between atoms: _337  and  _338
REMARK  152  A    between atoms: _341  and  _342
REMARK  153  A    between atoms: _342  and  _343
REMARK  154  A    between atoms: _342  and  _345
REMARK  155  A    between atoms: _345  and  _346
REMARK  156  A    between atoms: _349  and  _350
REMARK  157  A    between atoms: _350  and  _351
REMARK  158  A    between atoms: _350  and  _353
REMARK  159  A    between atoms: _353  and  _354
REMARK  160  A    between atoms: _357  and  _358
REMARK  161  A    between atoms: _358  and  _359
REMARK  162  A    between atoms: _358  and  _361
REMARK  163  A    between atoms: _361  and  _362
REMARK  164  A    between atoms: _362  and  _363
REMARK  165  A    between atoms: _363  and  _364
REMARK  166  A    between atoms: _366  and  _367
REMARK  167  A    between atoms: _367  and  _368
REMARK  168  A    between atoms: _367  and  _370
REMARK  169  A    between atoms: _370  and  _371
REMARK  170  A    between atoms: _374  and  _375
REMARK  171  A    between atoms: _375  and  _376
REMARK  172  A    between atoms: _375  and  _378
REMARK  173  A    between atoms: _378  and  _379
REMARK  174  A    between atoms: _379  and  _380
REMARK  175  A    between atoms: _380  and  _381
REMARK  176  A    between atoms: _385  and  _386
REMARK  177  A    between atoms: _386  and  _387
REMARK  178  A    between atoms: _386  and  _389
REMARK  179  A    between atoms: _389  and  _390
REMARK  180  A    between atoms: _397  and  _398
REMARK  181  A    between atoms: _398  and  _399
REMARK  182  A    between atoms: _398  and  _401
REMARK  183  A    between atoms: _401  and  _402
REMARK  184  A    between atoms: _402  and  _403
REMARK  185  A    between atoms: _406  and  _407
REMARK  186  A    between atoms: _407  and  _408
REMARK  187  A    between atoms: _407  and  _410
REMARK  188  A    between atoms: _412  and  _413
REMARK  189  A    between atoms: _413  and  _414
REMARK  190  A    between atoms: _413  and  _416
REMARK  191  A    between atoms: _416  and  _417
REMARK  192  A    between atoms: _420  and  _421
REMARK  193  A    between atoms: _421  and  _422
REMARK  194  A    between atoms: _421  and  _424
REMARK  195  A    between atoms: _427  and  _428
REMARK  196  A    between atoms: _428  and  _429
REMARK  197  A    between atoms: _428  and  _431
REMARK  198  A    between atoms: _431  and  _432
REMARK  199  A    between atoms: _436  and  _437
REMARK  200  A    between atoms: _442  and  _443
REMARK  201  A    between atoms: _443  and  _444
REMARK  202  A    between atoms: _443  and  _446
REMARK  203  A    between atoms: _448  and  _449
REMARK  204  A    between atoms: _449  and  _450
REMARK  205  A    between atoms: _449  and  _452
REMARK  206  A    between atoms: _452  and  _453
REMARK  207  A    between atoms: _453  and  _454
REMARK  208  A    between atoms: _454  and  _455
REMARK  209  A    between atoms: _457  and  _458
REMARK  210  A    between atoms: _458  and  _459
REMARK  211  A    between atoms: _458  and  _461
REMARK  212  A    between atoms: _461  and  _462
REMARK  213  A    between atoms: _465  and  _466
REMARK  214  A    between atoms: _466  and  _467
REMARK  215  A    between atoms: _466  and  _469
REMARK  216  A    between atoms: _469  and  _470
REMARK  217  A    between atoms: _473  and  _474
REMARK  218  A    between atoms: _474  and  _475
REMARK  219  A    between atoms: _474  and  _477
REMARK  220  A    between atoms: _479  and  _480
REMARK  221  A    between atoms: _480  and  _481
REMARK  222  A    between atoms: _483  and  _484
REMARK  223  A    between atoms: _484  and  _485
REMARK  224  A    between atoms: _484  and  _487
REMARK  225  A    between atoms: _487  and  _488
REMARK  226  A    between atoms: _488  and  _489
REMARK  227  A    between atoms: _489  and  _490
REMARK  228  A    between atoms: _492  and  _493
REMARK  229  A    between atoms: _493  and  _494
REMARK  230  A    between atoms: _493  and  _496
REMARK  231  A    between atoms: _496  and  _497
REMARK  232  A    between atoms: _497  and  _498
REMARK  233  A    between atoms: _501  and  _502
REMARK  234  A    between atoms: _502  and  _503
REMARK  235  A    between atoms: _502  and  _505
REMARK  236  A    between atoms: _505  and  _506
REMARK  237  A    between atoms: _509  and  _510
REMARK  238  A    between atoms: _510  and  _511
REMARK  239  A    between atoms: _510  and  _513
REMARK  240  A    between atoms: _513  and  _514
REMARK  241  A    between atoms: _519  and  _520
REMARK  242  A    between atoms: _520  and  _521
REMARK  243  A    between atoms: _520  and  _523
REMARK  244  A    between atoms: _523  and  _524
REMARK  245  A    between atoms: _527  and  _528
REMARK  246  A    between atoms: _528  and  _529
REMARK  247  A    between atoms: _528  and  _531
REMARK  248  A    between atoms: _531  and  _532
REMARK  249  A    between atoms: _535  and  _536
REMARK  250  A    between atoms: _536  and  _537
REMARK  251  A    between atoms: _536  and  _539
REMARK  252  A    between atoms: _539  and  _540
REMARK  253  A    between atoms: _543  and  _544
REMARK  254  A    between atoms: _544  and  _545
REMARK  255  A    between atoms: _544  and  _547
REMARK  256  A    between atoms: _547  and  _548
REMARK  257  A    between atoms: _552  and  _553
REMARK  258  A    between atoms: _558  and  _559
REMARK  259  A    between atoms: _559  and  _560
REMARK  260  A    between atoms: _559  and  _562
REMARK  261  A    between atoms: _562  and  _563
REMARK  262  A    between atoms: _566  and  _567
REMARK  263  A    between atoms: _567  and  _568
REMARK  264  A    between atoms: _567  and  _570
REMARK  265  A    between atoms: _570  and  _571
REMARK  266  A    between atoms: _571  and  _572
REMARK  267  A    between atoms: _572  and  _573
REMARK  268  A    between atoms: _575  and  _576
REMARK  269  A    between atoms: _576  and  _577
REMARK  270  A    between atoms: _576  and  _579
REMARK  271  A    between atoms: _579  and  _580
REMARK  272  A    between atoms: _580  and  _581
REMARK  273  A    between atoms: _584  and  _585
REMARK  274  A    between atoms: _585  and  _586
REMARK  275  A    between atoms: _585  and  _588
REMARK  276  A    between atoms: _588  and  _589
REMARK  277  A    between atoms: _592  and  _593
REMARK  278  A    between atoms: _593  and  _594
REMARK  279  A    between atoms: _593  and  _596
REMARK  280  A    between atoms: _596  and  _597
REMARK  281  A    between atoms: _597  and  _598
REMARK  282  A    between atoms: _598  and  _599
REMARK  283  A    between atoms: _603  and  _604
REMARK  284  A    between atoms: _604  and  _605
REMARK  285  A    between atoms: _604  and  _607
REMARK  286  A    between atoms: _610  and  _611
REMARK  287  A    between atoms: _611  and  _612
REMARK  288  A    between atoms: _611  and  _614
REMARK  289  A    between atoms: _614  and  _615
REMARK  290  A    between atoms: _618  and  _619
REMARK  291  A    between atoms: _619  and  _620
REMARK  292  A    between atoms: _619  and  _622
REMARK  293  A    between atoms: _625  and  _626
REMARK  294  A    between atoms: _626  and  _627
REMARK  295  A    between atoms: _626  and  _629
REMARK  296  A    between atoms: _629  and  _630
REMARK  297  A    between atoms: _633  and  _634
REMARK  298  A    between atoms: _634  and  _635
REMARK  299  A    between atoms: _634  and  _637
REMARK  300  A    between atoms: _640  and  _641
REMARK  301  A    between atoms: _641  and  _642
REMARK  302  A    between atoms: _641  and  _644
REMARK  303  A    between atoms: _644  and  _645
REMARK  304  A    between atoms: _648  and  _649
REMARK  305  A    between atoms: _649  and  _650
REMARK  306  A    between atoms: _649  and  _652
REMARK  307  A    between atoms: _655  and  _656
REMARK  308  A    between atoms: _656  and  _657
REMARK  309  A    between atoms: _659  and  _660
REMARK  310  A    between atoms: _660  and  _661
REMARK  311  A    between atoms: _660  and  _663
REMARK  312  A    between atoms: _663  and  _664
REMARK  313  A    between atoms: _667  and  _668
REMARK  314  A    between atoms: _668  and  _669
REMARK  315  A    between atoms: _671  and  _672
REMARK  316  A    between atoms: _672  and  _673
REMARK  317  A    between atoms: _672  and  _675
REMARK  318  A    between atoms: _675  and  _676
REMARK  319  A    between atoms: _676  and  _677
REMARK  320  A    between atoms: _679  and  _680
REMARK  321  A    between atoms: _680  and  _681
REMARK  322  A    between atoms: _680  and  _683
REMARK  323  A    between atoms: _686  and  _687
REMARK  324  A    between atoms: _687  and  _688
REMARK  325  A    between atoms: _687  and  _690
REMARK  326  A    between atoms: _690  and  _691
REMARK  327  A    between atoms: _691  and  _692
REMARK  328  A    between atoms: _692  and  _693
REMARK  329  A    between atoms: _695  and  _696
REMARK  330  A    between atoms: _696  and  _697
REMARK  331  A    between atoms: _700  and  _701
REMARK  332  A    between atoms: _701  and  _702
REMARK  333  A    between atoms: _701  and  _704
REMARK  334  A    between atoms: _704  and  _705
REMARK  335  A    between atoms: _708  and  _709
REMARK  336  A    between atoms: _709  and  _710
REMARK  337  A    between atoms: _709  and  _712
REMARK  338  A    between atoms: _712  and  _713
REMARK  339  A    between atoms: _716  and  _717
REMARK  340  A    between atoms: _717  and  _720
REMARK  341  A    between atoms: _720  and  _721
REMARK  342  A    between atoms: _733  and  _734
REMARK  343  A    between atoms: _733  and  _735
REMARK  344  A    between atoms: _741  and  _744
REMARK  345  A    between atoms: _744  and  _745
REMARK  346  A    between atoms: _758  and  _759
REMARK  347  A    between atoms: _758  and  _761
REMARK  348  A    between atoms: _759  and  _760
REMARK  349  A    between atoms: _765  and  _766
REMARK  350  A    between atoms: _768  and  _769
REMARK  351  A    between atoms: _769  and  _770
REMARK  352  A    between atoms: _769  and  _772
REMARK  353  A    between atoms: _775  and  _776
REMARK  354  A    between atoms: _776  and  _777
REMARK  355  A    between atoms: _776  and  _779
REMARK  356  A    between atoms: _779  and  _780
REMARK  357  A    between atoms: _783  and  _784
REMARK  358  A    between atoms: _784  and  _785
REMARK  359  A    between atoms: _788  and  _789
REMARK  360  A    between atoms: _789  and  _790
REMARK  361  A    between atoms: _789  and  _792
REMARK  362  A    between atoms: _792  and  _793
REMARK  363  A    between atoms: _793  and  _794
REMARK  364  A    between atoms: _794  and  _795
REMARK  365  A    between atoms: _797  and  _798
REMARK  366  A    between atoms: _798  and  _799
REMARK  367  A    between atoms: _798  and  _801
REMARK  368  A    between atoms: _803  and  _804
REMARK  369  A    between atoms: _804  and  _805
REMARK  370  A    between atoms: _807  and  _808
REMARK  371  A    between atoms: _808  and  _809
REMARK  372  A    between atoms: _808  and  _811
REMARK  373  A    between atoms: _814  and  _815
REMARK  374  A    between atoms: _815  and  _816
REMARK  375  A    between atoms: _815  and  _818
REMARK  376  A    between atoms: _818  and  _819
REMARK  377  A    between atoms: _819  and  _820
REMARK  378  A    between atoms: _820  and  _821
REMARK  379  A    between atoms: _823  and  _824
REMARK  380  A    between atoms: _824  and  _825
REMARK  381  A    between atoms: _828  and  _829
REMARK  382  A    between atoms: _829  and  _830
REMARK  383  A    between atoms: _829  and  _832
REMARK  384  A    between atoms: _832  and  _833
REMARK  385  A    between atoms: _839  and  _840
REMARK  386  A    between atoms: _840  and  _841
REMARK  387  A    between atoms: _840  and  _843
REMARK  388  A    between atoms: _843  and  _844
REMARK  389  A    between atoms: _844  and  _845
REMARK  390  A    between atoms: _847  and  _848
REMARK  391  A    between atoms: _848  and  _849
REMARK  392  A    between atoms: _848  and  _851
REMARK  393  A    between atoms: _851  and  _852
REMARK  394  A    between atoms: _852  and  _853
REMARK  395  A    between atoms: _856  and  _857
REMARK  396  A    between atoms: _857  and  _858
REMARK  397  A    between atoms: _861  and  _862
REMARK  398  A    between atoms: _862  and  _863
REMARK  399  A    between atoms: _862  and  _865
REMARK  400  A    between atoms: _865  and  _866
REMARK  401  A    between atoms: _869  and  _870
REMARK  402  A    between atoms: _870  and  _871
REMARK  403  A    between atoms: _870  and  _873
REMARK  404  A    between atoms: _873  and  _874
REMARK  405  A    between atoms: _874  and  _875
REMARK  406  A    between atoms: _878  and  _879
REMARK  407  A    between atoms: _879  and  _880
REMARK  408  A    between atoms: _883  and  _884
REMARK  409  A    between atoms: _884  and  _885
REMARK  410  A    between atoms: _887  and  _888
REMARK  411  A    between atoms: _888  and  _889
REMARK  412  A    between atoms: _892  and  _893
REMARK  413  A    between atoms: _893  and  _894
REMARK  414  A    between atoms: _893  and  _896
REMARK  415  A    between atoms: _896  and  _897
REMARK  416  A    between atoms: _900  and  _901
REMARK  417  A    between atoms: _901  and  _902
REMARK  418  A    between atoms: _901  and  _904
REMARK  419  A    between atoms: _904  and  _905
REMARK  420  A    between atoms: _908  and  _909
REMARK  421  A    between atoms: _909  and  _910
REMARK  422  A    between atoms: _909  and  _912
REMARK  423  A    between atoms: _914  and  _915
REMARK  424  A    between atoms: _915  and  _916
REMARK  425  A    between atoms: _915  and  _918
REMARK  426  A    between atoms: _918  and  _919
REMARK  427  A    between atoms: _919  and  _920
REMARK  428  A    between atoms: _922  and  _923
REMARK  429  A    between atoms: _923  and  _924
REMARK  430  A    between atoms: _923  and  _926
REMARK  431  A    between atoms: _926  and  _927
REMARK  432  A    between atoms: _930  and  _931
REMARK  433  A    between atoms: _931  and  _932
REMARK  434  A    between atoms: _934  and  _935
REMARK  435  A    between atoms: _935  and  _936
REMARK  436  A    between atoms: _935  and  _938
REMARK  437  A    between atoms: _938  and  _939
REMARK  438  A    between atoms: _939  and  _940
REMARK  439  A    between atoms: _943  and  _944
REMARK  440  A    between atoms: _944  and  _945
REMARK  441  A    between atoms: _944  and  _947
REMARK  442  A    between atoms: _947  and  _948
REMARK  443  A    between atoms: _954  and  _955
REMARK  444  A    between atoms: _955  and  _956
REMARK  445  A    between atoms: _958  and  _959
REMARK  446  A    between atoms: _959  and  _960
REMARK  447  A    between atoms: _959  and  _962
REMARK  448  A    between atoms: _965  and  _966
REMARK  449  A    between atoms: _966  and  _967
REMARK  450  A    between atoms: _969  and  _970
REMARK  451  A    between atoms: _970  and  _971
REMARK  452  A    between atoms: _970  and  _973
REMARK  453  A    between atoms: _973  and  _974
REMARK  454  A    between atoms: _980  and  _981
REMARK  455  A    between atoms: _981  and  _982
REMARK  456  A    between atoms: _981  and  _984
REMARK  457  A    between atoms: _984  and  _985
REMARK  458  A    between atoms: _992  and  _993
REMARK  459  A    between atoms: _993  and  _994
REMARK  460  A    between atoms: _993  and  _996
REMARK  461  A    between atoms: _998  and  _999
REMARK  462  A    between atoms: _999  and  _1000
REMARK  463  A    between atoms: _1003  and  _1004
REMARK  464  A    between atoms: _1004  and  _1005
REMARK  465  A    between atoms: _1004  and  _1007
REMARK  466  A    between atoms: _1007  and  _1008
REMARK  467  A    between atoms: _1015  and  _1016
REMARK  468  A    between atoms: _1016  and  _1017
REMARK  469  A    between atoms: _1016  and  _1019
REMARK  470  A    between atoms: _1019  and  _1020
REMARK  471  A    between atoms: _1023  and  _1024
REMARK  472  A    between atoms: _1024  and  _1025
REMARK  473  A    between atoms: _1024  and  _1027
REMARK  474  A    between atoms: _1030  and  _1031
REMARK  475  A    between atoms: _1031  and  _1032
REMARK  476  A    between atoms: _1035  and  _1036
REMARK  477  A    between atoms: _1036  and  _1037
REMARK  478  A    between atoms: _1036  and  _1039
REMARK  479  A    between atoms: _1039  and  _1040
REMARK  480  A    between atoms: _1040  and  _1041
REMARK  481  A    between atoms: _1044  and  _1045
REMARK  482  A    between atoms: _1045  and  _1046
REMARK  483  A    between atoms: _1045  and  _1048
REMARK  484  A    between atoms: _1048  and  _1049
REMARK  485  A    between atoms: _1049  and  _1050
REMARK  486  A    between atoms: _1050  and  _1051
REMARK  487  A    between atoms: _1053  and  _1054
REMARK  488  A    between atoms: _1054  and  _1055
REMARK  489  A    between atoms: _1054  and  _1057
REMARK  490  A    between atoms: _1060  and  _1061
REMARK  491  A    between atoms: _1061  and  _1062
REMARK  492  A    between atoms: _1061  and  _1064
REMARK  493  A    between atoms: _1067  and  _1068
REMARK  494  A    between atoms: _1068  and  _1069
REMARK  495  A    between atoms: _1068  and  _1071
REMARK  496  A    between atoms: _1074  and  _1075
REMARK  497  A    between atoms: _1075  and  _1076
REMARK  498  A    between atoms: _1075  and  _1078
REMARK  499  A    between atoms: _1078  and  _1079
REMARK  500  A    between atoms: _1082  and  _1083
REMARK  501  A    between atoms: _1083  and  _1084
REMARK  502  A    between atoms: _1083  and  _1086
REMARK  503  A    between atoms: _1089  and  _1090
REMARK  504  A    between atoms: _1090  and  _1091
REMARK  505  A    between atoms: _1090  and  _1093
REMARK  506  A    between atoms: _1093  and  _1094
REMARK  507  A    between atoms: _1094  and  _1095
REMARK  508  A    between atoms: _1095  and  _1096
REMARK  509  A    between atoms: _1098  and  _1099
REMARK  510  A    between atoms: _1099  and  _1100
REMARK  511  A    between atoms: _1099  and  _1102
REMARK  512  A    between atoms: _1102  and  _1103
REMARK  513  A    between atoms: _1108  and  _1109
REMARK  514  A    between atoms: _1109  and  _1110
REMARK  515  A    between atoms: _1109  and  _1112
REMARK  516  A    between atoms: _1112  and  _1113
REMARK  517  A    between atoms: _1116  and  _1117
REMARK  518  A    between atoms: _1117  and  _1118
REMARK  519  A    between atoms: _1117  and  _1120
REMARK  520  A    between atoms: _1120  and  _1121
REMARK  521  A    between atoms: _1124  and  _1125
REMARK  522  A    between atoms: _1125  and  _1126
REMARK  523  A    between atoms: _1125  and  _1128
REMARK  524  A    between atoms: _1128  and  _1129
REMARK  525  A    between atoms: _1132  and  _1133
REMARK  526  A    between atoms: _1133  and  _1134
REMARK  527  A    between atoms: _1133  and  _1136
REMARK  528  A    between atoms: _1136  and  _1137
REMARK  529  A    between atoms: _1137  and  _1138
REMARK  530  A    between atoms: _1141  and  _1142
REMARK  531  A    between atoms: _1142  and  _1143
REMARK  532  A    between atoms: _1142  and  _1145
REMARK  533  A    between atoms: _1145  and  _1146
REMARK  534  A    between atoms: _1146  and  _1147
REMARK  535  A    between atoms: _1150  and  _1151
REMARK  536  A    between atoms: _1151  and  _1152
REMARK  537  A    between atoms: _1151  and  _1154
REMARK  538  A    between atoms: _1154  and  _1155
REMARK  539  A    between atoms: _1162  and  _1163
REMARK  540  A    between atoms: _1163  and  _1164
REMARK  541  A    between atoms: _1167  and  _1168
REMARK  542  A    between atoms: _1168  and  _1169
REMARK  543  A    between atoms: _1168  and  _1171
REMARK  544  A    between atoms: _1171  and  _1172
REMARK  545  A    between atoms: _1181  and  _1182
REMARK  546  A    between atoms: _1182  and  _1183
REMARK  547  A    between atoms: _1182  and  _1185
REMARK  548  A    between atoms: _1185  and  _1186
REMARK  549  A    between atoms: _1186  and  _1187
REMARK  550  A    between atoms: _1190  and  _1191
REMARK  551  A    between atoms: _1191  and  _1192
REMARK  552  A    between atoms: _1191  and  _1194
REMARK  553  A    between atoms: _1196  and  _1197
REMARK  554  A    between atoms: _1197  and  _1198
REMARK  555  A    between atoms: _1197  and  _1200
REMARK  556  A    between atoms: _1202  and  _1203
REMARK  557  A    between atoms: _1203  and  _1204
REMARK  558  A    between atoms: _1207  and  _1208
REMARK  559  A    between atoms: _1208  and  _1209
REMARK  560  A    between atoms: _1211  and  _1212
REMARK  561  A    between atoms: _1212  and  _1213
REMARK  562  A    between atoms: _1215  and  _1216
REMARK  563  A    between atoms: _1216  and  _1217
REMARK  564  A    between atoms: _1216  and  _1219
REMARK  565  A    between atoms: _1221  and  _1222
REMARK  566  A    between atoms: _1222  and  _1223
REMARK  567  A    between atoms: _1222  and  _1225
REMARK  568  A    between atoms: _1225  and  _1226
REMARK  569  A    between atoms: _1232  and  _1233
REMARK  570  A    between atoms: _1233  and  _1234
REMARK  571  A    between atoms: _1233  and  _1236
REMARK  572  A    between atoms: _1239  and  _1240
REMARK  573  A    between atoms: _1240  and  _1241
REMARK  574  A    between atoms: _1240  and  _1243
REMARK  575  A    between atoms: _1247  and  _1249
REMARK  576  A    between atoms: _1247  and  _1252
REMARK  577  A    between atoms: _1251  and  _1252
REMARK  578  A    between atoms: _1251  and  _1254
REMARK  579  A    between atoms: _1253  and  _1254
REMARK  580  A    between atoms: _1253  and  _1256
REMARK  581  A    between atoms: _1254  and  _1255
REMARK  582  A    between atoms: _1255  and  _1257
REMARK  583  A    between atoms: _1256  and  _1258
REMARK  584  A    between atoms: _1265  and  _1266
REMARK  585  A    between atoms: _1266  and  _1267
REMARK  586  A    between atoms: _1266  and  _1269
REMARK  587  A    between atoms: _1272  and  _1273
REMARK  588  A    between atoms: _1273  and  _1274
REMARK  589  A    between atoms: _1273  and  _1276
REMARK  590  A    between atoms: _1276  and  _1277
REMARK  591  A    between atoms: _1280  and  _1281
REMARK  592  A    between atoms: _1281  and  _1282
REMARK  593  A    between atoms: _1281  and  _1284
REMARK  594  A    between atoms: _1287  and  _1288
REMARK  595  A    between atoms: _1288  and  _1289
REMARK  596  A    between atoms: _1291  and  _1292
REMARK  597  A    between atoms: _1292  and  _1293
REMARK  598  A    between atoms: _1292  and  _1295
REMARK  599  A    between atoms: _1295  and  _1296
REMARK  600  A    between atoms: _1296  and  _1297
REMARK  601  A    between atoms: _1301  and  _1302
REMARK  602  A    between atoms: _1307  and  _1308
REMARK  603  A    between atoms: _1308  and  _1309
REMARK  604  A    between atoms: _1308  and  _1311
REMARK  605  A    between atoms: _1311  and  _1312
REMARK  606  A    between atoms: _1312  and  _1313
REMARK  607  A    between atoms: _1315  and  _1316
REMARK  608  A    between atoms: _1316  and  _1317
REMARK  609  A    between atoms: _1319  and  _1320
REMARK  610  A    between atoms: _1320  and  _1321
REMARK  611  A    between atoms: _1320  and  _1323
REMARK  612  A    between atoms: _1323  and  _1324
REMARK  613  A    between atoms: _1324  and  _1325
REMARK  614  A    between atoms: _1325  and  _1326
REMARK  615  A    between atoms: _1330  and  _1331
REMARK  616  A    between atoms: _1331  and  _1332
REMARK  617  A    between atoms: _1334  and  _1335
REMARK  618  A    between atoms: _1335  and  _1336
REMARK  619  A    between atoms: _1335  and  _1338
REMARK  620  A    between atoms: _1341  and  _1342
REMARK  621  A    between atoms: _1342  and  _1343
REMARK  622  A    between atoms: _1342  and  _1345
REMARK  623  A    between atoms: _1345  and  _1346
REMARK  624  A    between atoms: _1346  and  _1347
REMARK  625  A    between atoms: _1347  and  _1348
REMARK  626  A    between atoms: _1350  and  _1351
REMARK  627  A    between atoms: _1351  and  _1352
REMARK  628  A    between atoms: _1351  and  _1354
REMARK  629  A    between atoms: _1357  and  _1358
REMARK  630  A    between atoms: _1358  and  _1359
REMARK  631  A    between atoms: _1358  and  _1361
REMARK  632  A    between atoms: _1361  and  _1362
REMARK  633  A    between atoms: _1365  and  _1366
REMARK  634  A    between atoms: _1366  and  _1367
REMARK  635  A    between atoms: _1366  and  _1369
REMARK  636  A    between atoms: _1369  and  _1370
REMARK  637  A    between atoms: _1373  and  _1374
REMARK  638  A    between atoms: _1374  and  _1375
REMARK  639  A    between atoms: _1374  and  _1377
REMARK  640  A    between atoms: _1377  and  _1378
REMARK  641  A    between atoms: _1383  and  _1384
REMARK  642  A    between atoms: _1384  and  _1385
REMARK  643  A    between atoms: _1384  and  _1387
REMARK  644  A    between atoms: _1387  and  _1388
REMARK  645  A    between atoms: _1391  and  _1392
REMARK  646  A    between atoms: _1392  and  _1393
REMARK  647  A    between atoms: _1392  and  _1395
REMARK  648  A    between atoms: _1395  and  _1396
REMARK  649  A    between atoms: _1396  and  _1397
REMARK  650  A    between atoms: _1397  and  _1398
REMARK  651  A    between atoms: _1400  and  _1401
REMARK  652  A    between atoms: _1401  and  _1402
REMARK  653  A    between atoms: _1401  and  _1404
REMARK  654  A    between atoms: _1404  and  _1405
REMARK  655  A    between atoms: _1405  and  _1406
REMARK  656  A    between atoms: _1409  and  _1410
REMARK  657  A    between atoms: _1410  and  _1411
REMARK  658  A    between atoms: _1410  and  _1413
REMARK  659  A    between atoms: _1413  and  _1414
REMARK  660  A    between atoms: _1417  and  _1418
REMARK  661  A    between atoms: _1418  and  _1419
REMARK  662  A    between atoms: _1418  and  _1421
REMARK  663  A    between atoms: _1421  and  _1422
REMARK  664  A    between atoms: _1422  and  _1423
REMARK  665  A    between atoms: _1426  and  _1427
REMARK  666  A    between atoms: _1427  and  _1428
REMARK  667  A    between atoms: _1427  and  _1430
REMARK  668  A    between atoms: _1433  and  _1434
REMARK  669  A    between atoms: _1434  and  _1435
REMARK  670  A    between atoms: _1434  and  _1437
REMARK  671  A    between atoms: _1437  and  _1438
REMARK  672  A    between atoms: _1438  and  _1439
REMARK  673  A    between atoms: _1442  and  _1443
REMARK  674  A    between atoms: _1443  and  _1444
REMARK  675  A    between atoms: _1443  and  _1446
REMARK  676  A    between atoms: _1446  and  _1447
REMARK  677  A    between atoms: _1454  and  _1455
REMARK  678  A    between atoms: _1455  and  _1456
REMARK  679  A    between atoms: _1455  and  _1458
REMARK  680  A    between atoms: _1458  and  _1459
REMARK  681  A    between atoms: _1462  and  _1463
REMARK  682  A    between atoms: _1463  and  _1464
REMARK  683  A    between atoms: _1463  and  _1466
REMARK  684  A    between atoms: _1466  and  _1467
REMARK  685  A    between atoms: _1467  and  _1468
REMARK  686  A    between atoms: _1471  and  _1472
REMARK  687  A    between atoms: _1472  and  _1473
REMARK  688  A    between atoms: _1472  and  _1475
REMARK  689  A    between atoms: _1475  and  _1476
REMARK  690  A    between atoms: _1476  and  _1477
REMARK  691  A    between atoms: _1480  and  _1481
REMARK  692  A    between atoms: _1481  and  _1482
REMARK  693  A    between atoms: _1481  and  _1484
REMARK  694  A    between atoms: _1484  and  _1485
REMARK  695  A    between atoms: _1485  and  _1486
REMARK  696  A    between atoms: _1486  and  _1487
REMARK  697  A    between atoms: _1491  and  _1492
REMARK  698  A    between atoms: _1492  and  _1493
REMARK  699  A    between atoms: _1492  and  _1495
REMARK  700  A    between atoms: _1495  and  _1496
REMARK  701  A    between atoms: _1496  and  _1497
REMARK  702  A    between atoms: _1497  and  _1498
REMARK  703  A    between atoms: _1502  and  _1503
REMARK  704  A    between atoms: _1503  and  _1504
REMARK  705  A    between atoms: _1503  and  _1506
REMARK  706  A    between atoms: _1506  and  _1507
REMARK  707  A    between atoms: _1510  and  _1511
REMARK  708  A    between atoms: _1511  and  _1512
REMARK  709  A    between atoms: _1511  and  _1514
REMARK  710  A    between atoms: _1514  and  _1515
REMARK  711  A    between atoms: _1515  and  _1516
REMARK  712  A    between atoms: _1516  and  _1517
REMARK  713  A    between atoms: _1519  and  _1520
REMARK  714  A    between atoms: _1520  and  _1521
REMARK  715  A    between atoms: _1520  and  _1523
REMARK  716  A    between atoms: _1523  and  _1524
REMARK  717  A    between atoms: _1524  and  _1525
REMARK  718  A    between atoms: _1528  and  _1529
REMARK  719  A    between atoms: _1529  and  _1530
REMARK  720  A    between atoms: _1529  and  _1532
REMARK  721  A    between atoms: _1532  and  _1533
REMARK  722  A    between atoms: _1536  and  _1537
REMARK  723  A    between atoms: _1537  and  _1538
REMARK  724  A    between atoms: _1537  and  _1540
REMARK  725  A    between atoms: _1543  and  _1544
REMARK  726  A    between atoms: _1544  and  _1545
REMARK  727  A    between atoms: _1544  and  _1547
REMARK  728  A    between atoms: _1547  and  _1548
REMARK  729  A    between atoms: _1548  and  _1549
REMARK  730  A    between atoms: _1549  and  _1550
REMARK  731  A    between atoms: _1552  and  _1553
REMARK  732  A    between atoms: _1553  and  _1554
REMARK  733  A    between atoms: _1553  and  _1556
REMARK  734  A    between atoms: _1556  and  _1557
REMARK  735  A    between atoms: _1557  and  _1558
REMARK  736  A    between atoms: _1558  and  _1559
REMARK  737  A    between atoms: _1561  and  _1562
REMARK  738  A    between atoms: _1562  and  _1563
REMARK  739  A    between atoms: _1562  and  _1565
REMARK  740  A    between atoms: _1565  and  _1566
REMARK  741  A    between atoms: _1571  and  _1572
REMARK  742  A    between atoms: _1572  and  _1573
REMARK  743  A    between atoms: _1572  and  _1575
REMARK  744  A    between atoms: _1577  and  _1578
REMARK  745  A    between atoms: _1578  and  _1579
REMARK  746  A    between atoms: _1578  and  _1581
REMARK  747  A    between atoms: _1581  and  _1582
REMARK  748  A    between atoms: _1582  and  _1583
REMARK  749  A    between atoms: _1586  and  _1587
REMARK  750  A    between atoms: _1587  and  _1588
REMARK  751  A    between atoms: _1587  and  _1590
REMARK  752  A    between atoms: _1590  and  _1591
REMARK  753  A    between atoms: _1597  and  _1598
REMARK  754  A    between atoms: _1598  and  _1599
REMARK  755  A    between atoms: _1598  and  _1601
REMARK  756  A    between atoms: _1601  and  _1602
REMARK  757  A    between atoms: _1605  and  _1606
REMARK  758  A    between atoms: _1606  and  _1607
REMARK  759  A    between atoms: _1609  and  _1610
REMARK  760  A    between atoms: _1610  and  _1611
REMARK  761  A    between atoms: _1610  and  _1613
REMARK  762  A    between atoms: _1613  and  _1614
REMARK  763  A    between atoms: _1622  and  _1623
REMARK  764  A    between atoms: _1628  and  _1629
REMARK  765  A    between atoms: _1629  and  _1630
REMARK  766  A    between atoms: _1629  and  _1632
REMARK  767  A    between atoms: _1632  and  _1633
REMARK  768  A    between atoms: _1636  and  _1637
REMARK  769  A    between atoms: _1637  and  _1638
REMARK  770  A    between atoms: _1637  and  _1640
REMARK  771  A    between atoms: _1643  and  _1644
REMARK  772  A    between atoms: _1644  and  _1645
REMARK  773  A    between atoms: _1644  and  _1647
REMARK  774  A    between atoms: _1647  and  _1648
REMARK  775  A    between atoms: _1651  and  _1652
REMARK  776  A    between atoms: _1652  and  _1653
REMARK  777  A    between atoms: _1652  and  _1655
REMARK  778  A    between atoms: _1655  and  _1656
REMARK  779  A    between atoms: _1662  and  _1663
REMARK  780  A    between atoms: _1663  and  _1664
REMARK  781  A    between atoms: _1663  and  _1666
REMARK  782  A    between atoms: _1669  and  _1670
REMARK  783  A    between atoms: _1670  and  _1671
REMARK  784  A    between atoms: _1670  and  _1673
REMARK  785  A    between atoms: _1673  and  _1674
REMARK  786  A    between atoms: _1674  and  _1675
REMARK                            x       y       z     vdW  Elec       q    Type
REMARK                         _______ _______ _______ _____ _____    ______ ____
ROOT
ATOM      1  C   UNL     1       9.245  10.902  30.236  0.00  0.00    +0.000 C 
ENDROOT
TORSDOF 0
REMARK  Name = /Users/mlugowska/PhD/ML_residence_time_prediction/protein_files/5J64_protein.pdb
REMARK  786 active torsions:
REMARK  status: ('A' for Active; 'I' for Inactive)
REMARK    1  A    between atoms: _2  and  _3
REMARK    2  A    between atoms: _2  and  _5
REMARK    3  A    between atoms: _5  and  _6
REMARK    4  A    between atoms: _6  and  _7
REMARK    5  A    between atoms: _10  and  _11
REMARK    6  A    between atoms: _11  and  _12
REMARK    7  A    between atoms: _11  and  _14
REMARK    8  A    between atoms: _17  and  _18
REMARK    9  A    between atoms: _18  and  _19
REMARK   10  A    between atoms: _18  and  _21
REMARK   11  A    between atoms: _21  and  _22
REMARK   12  A    between atoms: _22  and  _23
REMARK   13  A    between atoms: _26  and  _27
REMARK   14  A    between atoms: _27  and  _28
REMARK   15  A    between atoms: _27  and  _30
REMARK   16  A    between atoms: _33  and  _34
REMARK   17  A    between atoms: _34  and  _35
REMARK   18  A    between atoms: _34  and  _37
REMARK   19  A    between atoms: _37  and  _38
REMARK   20  A    between atoms: _44  and  _45
REMARK   21  A    between atoms: _45  and  _46
REMARK   22  A    between atoms: _49  and  _50
REMARK   23  A    between atoms: _50  and  _51
REMARK   24  A    between atoms: _50  and  _53
REMARK   25  A    between atoms: _53  and  _54
REMARK   26  A    between atoms: _60  and  _61
REMARK   27  A    between atoms: _61  and  _62
REMARK   28  A    between atoms: _61  and  _64
REMARK   29  A    between atoms: _64  and  _65
REMARK   30  A    between atoms: _65  and  _66
REMARK   31  A    between atoms: _69  and  _70
REMARK   32  A    between atoms: _70  and  _71
REMARK   33  A    between atoms: _74  and  _75
REMARK   34  A    between atoms: _75  and  _76
REMARK   35  A    between atoms: _75  and  _78
REMARK   36  A    between atoms: _78  and  _79
REMARK   37  A    between atoms: _79  and  _80
REMARK   38  A    between atoms: _83  and  _84
REMARK   39  A    between atoms: _84  and  _85
REMARK   40  A    between atoms: _84  and  _87
REMARK   41  A    between atoms: _87  and  _88
REMARK   42  A    between atoms: _91  and  _92
REMARK   43  A    between atoms: _92  and  _93
REMARK   44  A    between atoms: _96  and  _97
REMARK   45  A    between atoms: _97  and  _98
REMARK   46  A    between atoms: _97  and  _100
REMARK   47  A    between atoms: _100  and  _101
REMARK   48  A    between atoms: _101  and  _102
REMARK   49  A    between atoms: _105  and  _106
REMARK   50  A    between atoms: _106  and  _107
REMARK   51  A    between atoms: _106  and  _109
REMARK   52  A    between atoms: _109  and  _110
REMARK   53  A    between atoms: _113  and  _114
REMARK   54  A    between atoms: _114  and  _115
REMARK   55  A    between atoms: _114  and  _117
REMARK   56  A    between atoms: _117  and  _118
REMARK   57  A    between atoms: _118  and  _119
REMARK   58  A    between atoms: _121  and  _122
REMARK   59  A    between atoms: _122  and  _123
REMARK   60  A    between atoms: _122  and  _125
REMARK   61  A    between atoms: _127  and  _128
REMARK   62  A    between atoms: _128  and  _129
REMARK   63  A    between atoms: _128  and  _131
REMARK   64  A    between atoms: _131  and  _132
REMARK   65  A    between atoms: _135  and  _136
REMARK   66  A    between atoms: _136  and  _137
REMARK   67  A    between atoms: _136  and  _139
REMARK   68  A    between atoms: _139  and  _140
REMARK   69  A    between atoms: _143  and  _144
REMARK   70  A    between atoms: _144  and  _145
REMARK   71  A    between atoms: _144  and  _147
REMARK   72  A    between atoms: _147  and  _148
REMARK   73  A    between atoms: _151  and  _152
REMARK   74  A    between atoms: _152  and  _153
REMARK   75  A    between atoms: _152  and  _155
REMARK   76  A    between atoms: _155  and  _156
REMARK   77  A    between atoms: _159  and  _160
REMARK   78  A    between atoms: _160  and  _161
REMARK   79  A    between atoms: _160  and  _163
REMARK   80  A    between atoms: _166  and  _167
REMARK   81  A    between atoms: _167  and  _170
REMARK   82  A    between atoms: _170  and  _171
REMARK   83  A    between atoms: _181  and  _183
REMARK   84  A    between atoms: _183  and  _184
REMARK   85  A    between atoms: _189  and  _194
REMARK   86  A    between atoms: _192  and  _195
REMARK   87  A    between atoms: _193  and  _194
REMARK   88  A    between atoms: _195  and  _196
REMARK   89  A    between atoms: _201  and  _202
REMARK   90  A    between atoms: _202  and  _203
REMARK   91  A    between atoms: _202  and  _205
REMARK   92  A    between atoms: _207  and  _208
REMARK   93  A    between atoms: _208  and  _209
REMARK   94  A    between atoms: _208  and  _211
REMARK   95  A    between atoms: _211  and  _212
REMARK   96  A    between atoms: _215  and  _216
REMARK   97  A    between atoms: _216  and  _217
REMARK   98  A    between atoms: _216  and  _219
REMARK   99  A    between atoms: _219  and  _220
REMARK  100  A    between atoms: _220  and  _221
REMARK  101  A    between atoms: _221  and  _222
REMARK  102  A    between atoms: _224  and  _225
REMARK  103  A    between atoms: _225  and  _226
REMARK  104  A    between atoms: _225  and  _228
REMARK  105  A    between atoms: _228  and  _229
REMARK  106  A    between atoms: _229  and  _230
REMARK  107  A    between atoms: _233  and  _234
REMARK  108  A    between atoms: _234  and  _235
REMARK  109  A    between atoms: _234  and  _237
REMARK  110  A    between atoms: _237  and  _238
REMARK  111  A    between atoms: _241  and  _242
REMARK  112  A    between atoms: _242  and  _243
REMARK  113  A    between atoms: _242  and  _245
REMARK  114  A    between atoms: _245  and  _246
REMARK  115  A    between atoms: _252  and  _253
REMARK  116  A    between atoms: _253  and  _254
REMARK  117  A    between atoms: _253  and  _256
REMARK  118  A    between atoms: _256  and  _257
REMARK  119  A    between atoms: _260  and  _261
REMARK  120  A    between atoms: _261  and  _262
REMARK  121  A    between atoms: _261  and  _264
REMARK  122  A    between atoms: _264  and  _265
REMARK  123  A    between atoms: _265  and  _266
REMARK  124  A    between atoms: _266  and  _267
REMARK  125  A    between atoms: _271  and  _272
REMARK  126  A    between atoms: _272  and  _273
REMARK  127  A    between atoms: _272  and  _275
REMARK  128  A    between atoms: _275  and  _276
REMARK  129  A    between atoms: _276  and  _277
REMARK  130  A    between atoms: _280  and  _281
REMARK  131  A    between atoms: _281  and  _282
REMARK  132  A    between atoms: _281  and  _284
REMARK  133  A    between atoms: _284  and  _285
REMARK  134  A    between atoms: _288  and  _289
REMARK  135  A    between atoms: _289  and  _292
REMARK  136  A    between atoms: _292  and  _293
REMARK  137  A    between atoms: _309  and  _310
REMARK  138  A    between atoms: _309  and  _312
REMARK  139  A    between atoms: _312  and  _313
REMARK  140  A    between atoms: _316  and  _317
REMARK  141  A    between atoms: _317  and  _318
REMARK  142  A    between atoms: _317  and  _320
REMARK  143  A    between atoms: _322  and  _323
REMARK  144  A    between atoms: _323  and  _324
REMARK  145  A    between atoms: _323  and  _326
REMARK  146  A    between atoms: _328  and  _329
REMARK  147  A    between atoms: _329  and  _330
REMARK  148  A    between atoms: _329  and  _332
REMARK  149  A    between atoms: _332  and  _333
REMARK  150  A    between atoms: _336  and  _337
REMARK  151  A    between atoms: _337  and  _338
REMARK  152  A    between atoms: _341  and  _342
REMARK  153  A    between atoms: _342  and  _343
REMARK  154  A    between atoms: _342  and  _345
REMARK  155  A    between atoms: _345  and  _346
REMARK  156  A    between atoms: _349  and  _350
REMARK  157  A    between atoms: _350  and  _351
REMARK  158  A    between atoms: _350  and  _353
REMARK  159  A    between atoms: _353  and  _354
REMARK  160  A    between atoms: _357  and  _358
REMARK  161  A    between atoms: _358  and  _359
REMARK  162  A    between atoms: _358  and  _361
REMARK  163  A    between atoms: _361  and  _362
REMARK  164  A    between atoms: _362  and  _363
REMARK  165  A    between atoms: _363  and  _364
REMARK  166  A    between atoms: _366  and  _367
REMARK  167  A    between atoms: _367  and  _368
REMARK  168  A    between atoms: _367  and  _370
REMARK  169  A    between atoms: _370  and  _371
REMARK  170  A    between atoms: _374  and  _375
REMARK  171  A    between atoms: _375  and  _376
REMARK  172  A    between atoms: _375  and  _378
REMARK  173  A    between atoms: _378  and  _379
REMARK  174  A    between atoms: _379  and  _380
REMARK  175  A    between atoms: _380  and  _381
REMARK  176  A    between atoms: _385  and  _386
REMARK  177  A    between atoms: _386  and  _387
REMARK  178  A    between atoms: _386  and  _389
REMARK  179  A    between atoms: _389  and  _390
REMARK  180  A    between atoms: _397  and  _398
REMARK  181  A    between atoms: _398  and  _399
REMARK  182  A    between atoms: _398  and  _401
REMARK  183  A    between atoms: _401  and  _402
REMARK  184  A    between atoms: _402  and  _403
REMARK  185  A    between atoms: _406  and  _407
REMARK  186  A    between atoms: _407  and  _408
REMARK  187  A    between atoms: _407  and  _410
REMARK  188  A    between atoms: _412  and  _413
REMARK  189  A    between atoms: _413  and  _414
REMARK  190  A    between atoms: _413  and  _416
REMARK  191  A    between atoms: _416  and  _417
REMARK  192  A    between atoms: _420  and  _421
REMARK  193  A    between atoms: _421  and  _422
REMARK  194  A    between atoms: _421  and  _424
REMARK  195  A    between atoms: _427  and  _428
REMARK  196  A    between atoms: _428  and  _429
REMARK  197  A    between atoms: _428  and  _431
REMARK  198  A    between atoms: _431  and  _432
REMARK  199  A    between atoms: _436  and  _437
REMARK  200  A    between atoms: _442  and  _443
REMARK  201  A    between atoms: _443  and  _444
REMARK  202  A    between atoms: _443  and  _446
REMARK  203  A    between atoms: _448  and  _449
REMARK  204  A    between atoms: _449  and  _450
REMARK  205  A    between atoms: _449  and  _452
REMARK  206  A    between atoms: _452  and  _453
REMARK  207  A    between atoms: _453  and  _454
REMARK  208  A    between atoms: _454  and  _455
REMARK  209  A    between atoms: _457  and  _458
REMARK  210  A    between atoms: _458  and  _459
REMARK  211  A    between atoms: _458  and  _461
REMARK  212  A    between atoms: _461  and  _462
REMARK  213  A    between atoms: _465  and  _466
REMARK  214  A    between atoms: _466  and  _467
REMARK  215  A    between atoms: _466  and  _469
REMARK  216  A    between atoms: _469  and  _470
REMARK  217  A    between atoms: _473  and  _474
REMARK  218  A    between atoms: _474  and  _475
REMARK  219  A    between atoms: _474  and  _477
REMARK  220  A    between atoms: _479  and  _480
REMARK  221  A    between atoms: _480  and  _481
REMARK  222  A    between atoms: _483  and  _484
REMARK  223  A    between atoms: _484  and  _485
REMARK  224  A    between atoms: _484  and  _487
REMARK  225  A    between atoms: _487  and  _488
REMARK  226  A    between atoms: _488  and  _489
REMARK  227  A    between atoms: _489  and  _490
REMARK  228  A    between atoms: _492  and  _493
REMARK  229  A    between atoms: _493  and  _494
REMARK  230  A    between atoms: _493  and  _496
REMARK  231  A    between atoms: _496  and  _497
REMARK  232  A    between atoms: _497  and  _498
REMARK  233  A    between atoms: _501  and  _502
REMARK  234  A    between atoms: _502  and  _503
REMARK  235  A    between atoms: _502  and  _505
REMARK  236  A    between atoms: _505  and  _506
REMARK  237  A    between atoms: _509  and  _510
REMARK  238  A    between atoms: _510  and  _511
REMARK  239  A    between atoms: _510  and  _513
REMARK  240  A    between atoms: _513  and  _514
REMARK  241  A    between atoms: _519  and  _520
REMARK  242  A    between atoms: _520  and  _521
REMARK  243  A    between atoms: _520  and  _523
REMARK  244  A    between atoms: _523  and  _524
REMARK  245  A    between atoms: _527  and  _528
REMARK  246  A    between atoms: _528  and  _529
REMARK  247  A    between atoms: _528  and  _531
REMARK  248  A    between atoms: _531  and  _532
REMARK  249  A    between atoms: _535  and  _536
REMARK  250  A    between atoms: _536  and  _537
REMARK  251  A    between atoms: _536  and  _539
REMARK  252  A    between atoms: _539  and  _540
REMARK  253  A    between atoms: _543  and  _544
REMARK  254  A    between atoms: _544  and  _545
REMARK  255  A    between atoms: _544  and  _547
REMARK  256  A    between atoms: _547  and  _548
REMARK  257  A    between atoms: _552  and  _553
REMARK  258  A    between atoms: _558  and  _559
REMARK  259  A    between atoms: _559  and  _560
REMARK  260  A    between atoms: _559  and  _562
REMARK  261  A    between atoms: _562  and  _563
REMARK  262  A    between atoms: _566  and  _567
REMARK  263  A    between atoms: _567  and  _568
REMARK  264  A    between atoms: _567  and  _570
REMARK  265  A    between atoms: _570  and  _571
REMARK  266  A    between atoms: _571  and  _572
REMARK  267  A    between atoms: _572  and  _573
REMARK  268  A    between atoms: _575  and  _576
REMARK  269  A    between atoms: _576  and  _577
REMARK  270  A    between atoms: _576  and  _579
REMARK  271  A    between atoms: _579  and  _580
REMARK  272  A    between atoms: _580  and  _581
REMARK  273  A    between atoms: _584  and  _585
REMARK  274  A    between atoms: _585  and  _586
REMARK  275  A    between atoms: _585  and  _588
REMARK  276  A    between atoms: _588  and  _589
REMARK  277  A    between atoms: _592  and  _593
REMARK  278  A    between atoms: _593  and  _594
REMARK  279  A    between atoms: _593  and  _596
REMARK  280  A    between atoms: _596  and  _597
REMARK  281  A    between atoms: _597  and  _598
REMARK  282  A    between atoms: _598  and  _599
REMARK  283  A    between atoms: _603  and  _604
REMARK  284  A    between atoms: _604  and  _605
REMARK  285  A    between atoms: _604  and  _607
REMARK  286  A    between atoms: _610  and  _611
REMARK  287  A    between atoms: _611  and  _612
REMARK  288  A    between atoms: _611  and  _614
REMARK  289  A    between atoms: _614  and  _615
REMARK  290  A    between atoms: _618  and  _619
REMARK  291  A    between atoms: _619  and  _620
REMARK  292  A    between atoms: _619  and  _622
REMARK  293  A    between atoms: _625  and  _626
REMARK  294  A    between atoms: _626  and  _627
REMARK  295  A    between atoms: _626  and  _629
REMARK  296  A    between atoms: _629  and  _630
REMARK  297  A    between atoms: _633  and  _634
REMARK  298  A    between atoms: _634  and  _635
REMARK  299  A    between atoms: _634  and  _637
REMARK  300  A    between atoms: _640  and  _641
REMARK  301  A    between atoms: _641  and  _642
REMARK  302  A    between atoms: _641  and  _644
REMARK  303  A    between atoms: _644  and  _645
REMARK  304  A    between atoms: _648  and  _649
REMARK  305  A    between atoms: _649  and  _650
REMARK  306  A    between atoms: _649  and  _652
REMARK  307  A    between atoms: _655  and  _656
REMARK  308  A    between atoms: _656  and  _657
REMARK  309  A    between atoms: _659  and  _660
REMARK  310  A    between atoms: _660  and  _661
REMARK  311  A    between atoms: _660  and  _663
REMARK  312  A    between atoms: _663  and  _664
REMARK  313  A    between atoms: _667  and  _668
REMARK  314  A    between atoms: _668  and  _669
REMARK  315  A    between atoms: _671  and  _672
REMARK  316  A    between atoms: _672  and  _673
REMARK  317  A    between atoms: _672  and  _675
REMARK  318  A    between atoms: _675  and  _676
REMARK  319  A    between atoms: _676  and  _677
REMARK  320  A    between atoms: _679  and  _680
REMARK  321  A    between atoms: _680  and  _681
REMARK  322  A    between atoms: _680  and  _683
REMARK  323  A    between atoms: _686  and  _687
REMARK  324  A    between atoms: _687  and  _688
REMARK  325  A    between atoms: _687  and  _690
REMARK  326  A    between atoms: _690  and  _691
REMARK  327  A    between atoms: _691  and  _692
REMARK  328  A    between atoms: _692  and  _693
REMARK  329  A    between atoms: _695  and  _696
REMARK  330  A    between atoms: _696  and  _697
REMARK  331  A    between atoms: _700  and  _701
REMARK  332  A    between atoms: _701  and  _702
REMARK  333  A    between atoms: _701  and  _704
REMARK  334  A    between atoms: _704  and  _705
REMARK  335  A    between atoms: _708  and  _709
REMARK  336  A    between atoms: _709  and  _710
REMARK  337  A    between atoms: _709  and  _712
REMARK  338  A    between atoms: _712  and  _713
REMARK  339  A    between atoms: _716  and  _717
REMARK  340  A    between atoms: _717  and  _720
REMARK  341  A    between atoms: _720  and  _721
REMARK  342  A    between atoms: _733  and  _734
REMARK  343  A    between atoms: _733  and  _735
REMARK  344  A    between atoms: _741  and  _744
REMARK  345  A    between atoms: _744  and  _745
REMARK  346  A    between atoms: _758  and  _759
REMARK  347  A    between atoms: _758  and  _761
REMARK  348  A    between atoms: _759  and  _760
REMARK  349  A    between atoms: _765  and  _766
REMARK  350  A    between atoms: _768  and  _769
REMARK  351  A    between atoms: _769  and  _770
REMARK  352  A    between atoms: _769  and  _772
REMARK  353  A    between atoms: _775  and  _776
REMARK  354  A    between atoms: _776  and  _777
REMARK  355  A    between atoms: _776  and  _779
REMARK  356  A    between atoms: _779  and  _780
REMARK  357  A    between atoms: _783  and  _784
REMARK  358  A    between atoms: _784  and  _785
REMARK  359  A    between atoms: _788  and  _789
REMARK  360  A    between atoms: _789  and  _790
REMARK  361  A    between atoms: _789  and  _792
REMARK  362  A    between atoms: _792  and  _793
REMARK  363  A    between atoms: _793  and  _794
REMARK  364  A    between atoms: _794  and  _795
REMARK  365  A    between atoms: _797  and  _798
REMARK  366  A    between atoms: _798  and  _799
REMARK  367  A    between atoms: _798  and  _801
REMARK  368  A    between atoms: _803  and  _804
REMARK  369  A    between atoms: _804  and  _805
REMARK  370  A    between atoms: _807  and  _808
REMARK  371  A    between atoms: _808  and  _809
REMARK  372  A    between atoms: _808  and  _811
REMARK  373  A    between atoms: _814  and  _815
REMARK  374  A    between atoms: _815  and  _816
REMARK  375  A    between atoms: _815  and  _818
REMARK  376  A    between atoms: _818  and  _819
REMARK  377  A    between atoms: _819  and  _820
REMARK  378  A    between atoms: _820  and  _821
REMARK  379  A    between atoms: _823  and  _824
REMARK  380  A    between atoms: _824  and  _825
REMARK  381  A    between atoms: _828  and  _829
REMARK  382  A    between atoms: _829  and  _830
REMARK  383  A    between atoms: _829  and  _832
REMARK  384  A    between atoms: _832  and  _833
REMARK  385  A    between atoms: _839  and  _840
REMARK  386  A    between atoms: _840  and  _841
REMARK  387  A    between atoms: _840  and  _843
REMARK  388  A    between atoms: _843  and  _844
REMARK  389  A    between atoms: _844  and  _845
REMARK  390  A    between atoms: _847  and  _848
REMARK  391  A    between atoms: _848  and  _849
REMARK  392  A    between atoms: _848  and  _851
REMARK  393  A    between atoms: _851  and  _852
REMARK  394  A    between atoms: _852  and  _853
REMARK  395  A    between atoms: _856  and  _857
REMARK  396  A    between atoms: _857  and  _858
REMARK  397  A    between atoms: _861  and  _862
REMARK  398  A    between atoms: _862  and  _863
REMARK  399  A    between atoms: _862  and  _865
REMARK  400  A    between atoms: _865  and  _866
REMARK  401  A    between atoms: _869  and  _870
REMARK  402  A    between atoms: _870  and  _871
REMARK  403  A    between atoms: _870  and  _873
REMARK  404  A    between atoms: _873  and  _874
REMARK  405  A    between atoms: _874  and  _875
REMARK  406  A    between atoms: _878  and  _879
REMARK  407  A    between atoms: _879  and  _880
REMARK  408  A    between atoms: _883  and  _884
REMARK  409  A    between atoms: _884  and  _885
REMARK  410  A    between atoms: _887  and  _888
REMARK  411  A    between atoms: _888  and  _889
REMARK  412  A    between atoms: _892  and  _893
REMARK  413  A    between atoms: _893  and  _894
REMARK  414  A    between atoms: _893  and  _896
REMARK  415  A    between atoms: _896  and  _897
REMARK  416  A    between atoms: _900  and  _901
REMARK  417  A    between atoms: _901  and  _902
REMARK  418  A    between atoms: _901  and  _904
REMARK  419  A    between atoms: _904  and  _905
REMARK  420  A    between atoms: _908  and  _909
REMARK  421  A    between atoms: _909  and  _910
REMARK  422  A    between atoms: _909  and  _912
REMARK  423  A    between atoms: _914  and  _915
REMARK  424  A    between atoms: _915  and  _916
REMARK  425  A    between atoms: _915  and  _918
REMARK  426  A    between atoms: _918  and  _919
REMARK  427  A    between atoms: _919  and  _920
REMARK  428  A    between atoms: _922  and  _923
REMARK  429  A    between atoms: _923  and  _924
REMARK  430  A    between atoms: _923  and  _926
REMARK  431  A    between atoms: _926  and  _927
REMARK  432  A    between atoms: _930  and  _931
REMARK  433  A    between atoms: _931  and  _932
REMARK  434  A    between atoms: _934  and  _935
REMARK  435  A    between atoms: _935  and  _936
REMARK  436  A    between atoms: _935  and  _938
REMARK  437  A    between atoms: _938  and  _939
REMARK  438  A    between atoms: _939  and  _940
REMARK  439  A    between atoms: _943  and  _944
REMARK  440  A    between atoms: _944  and  _945
REMARK  441  A    between atoms: _944  and  _947
REMARK  442  A    between atoms: _947  and  _948
REMARK  443  A    between atoms: _954  and  _955
REMARK  444  A    between atoms: _955  and  _956
REMARK  445  A    between atoms: _958  and  _959
REMARK  446  A    between atoms: _959  and  _960
REMARK  447  A    between atoms: _959  and  _962
REMARK  448  A    between atoms: _965  and  _966
REMARK  449  A    between atoms: _966  and  _967
REMARK  450  A    between atoms: _969  and  _970
REMARK  451  A    between atoms: _970  and  _971
REMARK  452  A    between atoms: _970  and  _973
REMARK  453  A    between atoms: _973  and  _974
REMARK  454  A    between atoms: _980  and  _981
REMARK  455  A    between atoms: _981  and  _982
REMARK  456  A    between atoms: _981  and  _984
REMARK  457  A    between atoms: _984  and  _985
REMARK  458  A    between atoms: _992  and  _993
REMARK  459  A    between atoms: _993  and  _994
REMARK  460  A    between atoms: _993  and  _996
REMARK  461  A    between atoms: _998  and  _999
REMARK  462  A    between atoms: _999  and  _1000
REMARK  463  A    between atoms: _1003  and  _1004
REMARK  464  A    between atoms: _1004  and  _1005
REMARK  465  A    between atoms: _1004  and  _1007
REMARK  466  A    between atoms: _1007  and  _1008
REMARK  467  A    between atoms: _1015  and  _1016
REMARK  468  A    between atoms: _1016  and  _1017
REMARK  469  A    between atoms: _1016  and  _1019
REMARK  470  A    between atoms: _1019  and  _1020
REMARK  471  A    between atoms: _1023  and  _1024
REMARK  472  A    between atoms: _1024  and  _1025
REMARK  473  A    between atoms: _1024  and  _1027
REMARK  474  A    between atoms: _1030  and  _1031
REMARK  475  A    between atoms: _1031  and  _1032
REMARK  476  A    between atoms: _1035  and  _1036
REMARK  477  A    between atoms: _1036  and  _1037
REMARK  478  A    between atoms: _1036  and  _1039
REMARK  479  A    between atoms: _1039  and  _1040
REMARK  480  A    between atoms: _1040  and  _1041
REMARK  481  A    between atoms: _1044  and  _1045
REMARK  482  A    between atoms: _1045  and  _1046
REMARK  483  A    between atoms: _1045  and  _1048
REMARK  484  A    between atoms: _1048  and  _1049
REMARK  485  A    between atoms: _1049  and  _1050
REMARK  486  A    between atoms: _1050  and  _1051
REMARK  487  A    between atoms: _1053  and  _1054
REMARK  488  A    between atoms: _1054  and  _1055
REMARK  489  A    between atoms: _1054  and  _1057
REMARK  490  A    between atoms: _1060  and  _1061
REMARK  491  A    between atoms: _1061  and  _1062
REMARK  492  A    between atoms: _1061  and  _1064
REMARK  493  A    between atoms: _1067  and  _1068
REMARK  494  A    between atoms: _1068  and  _1069
REMARK  495  A    between atoms: _1068  and  _1071
REMARK  496  A    between atoms: _1074  and  _1075
REMARK  497  A    between atoms: _1075  and  _1076
REMARK  498  A    between atoms: _1075  and  _1078
REMARK  499  A    between atoms: _1078  and  _1079
REMARK  500  A    between atoms: _1082  and  _1083
REMARK  501  A    between atoms: _1083  and  _1084
REMARK  502  A    between atoms: _1083  and  _1086
REMARK  503  A    between atoms: _1089  and  _1090
REMARK  504  A    between atoms: _1090  and  _1091
REMARK  505  A    between atoms: _1090  and  _1093
REMARK  506  A    between atoms: _1093  and  _1094
REMARK  507  A    between atoms: _1094  and  _1095
REMARK  508  A    between atoms: _1095  and  _1096
REMARK  509  A    between atoms: _1098  and  _1099
REMARK  510  A    between atoms: _1099  and  _1100
REMARK  511  A    between atoms: _1099  and  _1102
REMARK  512  A    between atoms: _1102  and  _1103
REMARK  513  A    between atoms: _1108  and  _1109
REMARK  514  A    between atoms: _1109  and  _1110
REMARK  515  A    between atoms: _1109  and  _1112
REMARK  516  A    between atoms: _1112  and  _1113
REMARK  517  A    between atoms: _1116  and  _1117
REMARK  518  A    between atoms: _1117  and  _1118
REMARK  519  A    between atoms: _1117  and  _1120
REMARK  520  A    between atoms: _1120  and  _1121
REMARK  521  A    between atoms: _1124  and  _1125
REMARK  522  A    between atoms: _1125  and  _1126
REMARK  523  A    between atoms: _1125  and  _1128
REMARK  524  A    between atoms: _1128  and  _1129
REMARK  525  A    between atoms: _1132  and  _1133
REMARK  526  A    between atoms: _1133  and  _1134
REMARK  527  A    between atoms: _1133  and  _1136
REMARK  528  A    between atoms: _1136  and  _1137
REMARK  529  A    between atoms: _1137  and  _1138
REMARK  530  A    between atoms: _1141  and  _1142
REMARK  531  A    between atoms: _1142  and  _1143
REMARK  532  A    between atoms: _1142  and  _1145
REMARK  533  A    between atoms: _1145  and  _1146
REMARK  534  A    between atoms: _1146  and  _1147
REMARK  535  A    between atoms: _1150  and  _1151
REMARK  536  A    between atoms: _1151  and  _1152
REMARK  537  A    between atoms: _1151  and  _1154
REMARK  538  A    between atoms: _1154  and  _1155
REMARK  539  A    between atoms: _1162  and  _1163
REMARK  540  A    between atoms: _1163  and  _1164
REMARK  541  A    between atoms: _1167  and  _1168
REMARK  542  A    between atoms: _1168  and  _1169
REMARK  543  A    between atoms: _1168  and  _1171
REMARK  544  A    between atoms: _1171  and  _1172
REMARK  545  A    between atoms: _1181  and  _1182
REMARK  546  A    between atoms: _1182  and  _1183
REMARK  547  A    between atoms: _1182  and  _1185
REMARK  548  A    between atoms: _1185  and  _1186
REMARK  549  A    between atoms: _1186  and  _1187
REMARK  550  A    between atoms: _1190  and  _1191
REMARK  551  A    between atoms: _1191  and  _1192
REMARK  552  A    between atoms: _1191  and  _1194
REMARK  553  A    between atoms: _1196  and  _1197
REMARK  554  A    between atoms: _1197  and  _1198
REMARK  555  A    between atoms: _1197  and  _1200
REMARK  556  A    between atoms: _1202  and  _1203
REMARK  557  A    between atoms: _1203  and  _1204
REMARK  558  A    between atoms: _1207  and  _1208
REMARK  559  A    between atoms: _1208  and  _1209
REMARK  560  A    between atoms: _1211  and  _1212
REMARK  561  A    between atoms: _1212  and  _1213
REMARK  562  A    between atoms: _1215  and  _1216
REMARK  563  A    between atoms: _1216  and  _1217
REMARK  564  A    between atoms: _1216  and  _1219
REMARK  565  A    between atoms: _1221  and  _1222
REMARK  566  A    between atoms: _1222  and  _1223
REMARK  567  A    between atoms: _1222  and  _1225
REMARK  568  A    between atoms: _1225  and  _1226
REMARK  569  A    between atoms: _1232  and  _1233
REMARK  570  A    between atoms: _1233  and  _1234
REMARK  571  A    between atoms: _1233  and  _1236
REMARK  572  A    between atoms: _1239  and  _1240
REMARK  573  A    between atoms: _1240  and  _1241
REMARK  574  A    between atoms: _1240  and  _1243
REMARK  575  A    between atoms: _1247  and  _1249
REMARK  576  A    between atoms: _1247  and  _1252
REMARK  577  A    between atoms: _1251  and  _1252
REMARK  578  A    between atoms: _1251  and  _1254
REMARK  579  A    between atoms: _1253  and  _1254
REMARK  580  A    between atoms: _1253  and  _1256
REMARK  581  A    between atoms: _1254  and  _1255
REMARK  582  A    between atoms: _1255  and  _1257
REMARK  583  A    between atoms: _1256  and  _1258
REMARK  584  A    between atoms: _1265  and  _1266
REMARK  585  A    between atoms: _1266  and  _1267
REMARK  586  A    between atoms: _1266  and  _1269
REMARK  587  A    between atoms: _1272  and  _1273
REMARK  588  A    between atoms: _1273  and  _1274
REMARK  589  A    between atoms: _1273  and  _1276
REMARK  590  A    between atoms: _1276  and  _1277
REMARK  591  A    between atoms: _1280  and  _1281
REMARK  592  A    between atoms: _1281  and  _1282
REMARK  593  A    between atoms: _1281  and  _1284
REMARK  594  A    between atoms: _1287  and  _1288
REMARK  595  A    between atoms: _1288  and  _1289
REMARK  596  A    between atoms: _1291  and  _1292
REMARK  597  A    between atoms: _1292  and  _1293
REMARK  598  A    between atoms: _1292  and  _1295
REMARK  599  A    between atoms: _1295  and  _1296
REMARK  600  A    between atoms: _1296  and  _1297
REMARK  601  A    between atoms: _1301  and  _1302
REMARK  602  A    between atoms: _1307  and  _1308
REMARK  603  A    between atoms: _1308  and  _1309
REMARK  604  A    between atoms: _1308  and  _1311
REMARK  605  A    between atoms: _1311  and  _1312
REMARK  606  A    between atoms: _1312  and  _1313
REMARK  607  A    between atoms: _1315  and  _1316
REMARK  608  A    between atoms: _1316  and  _1317
REMARK  609  A    between atoms: _1319  and  _1320
REMARK  610  A    between atoms: _1320  and  _1321
REMARK  611  A    between atoms: _1320  and  _1323
REMARK  612  A    between atoms: _1323  and  _1324
REMARK  613  A    between atoms: _1324  and  _1325
REMARK  614  A    between atoms: _1325  and  _1326
REMARK  615  A    between atoms: _1330  and  _1331
REMARK  616  A    between atoms: _1331  and  _1332
REMARK  617  A    between atoms: _1334  and  _1335
REMARK  618  A    between atoms: _1335  and  _1336
REMARK  619  A    between atoms: _1335  and  _1338
REMARK  620  A    between atoms: _1341  and  _1342
REMARK  621  A    between atoms: _1342  and  _1343
REMARK  622  A    between atoms: _1342  and  _1345
REMARK  623  A    between atoms: _1345  and  _1346
REMARK  624  A    between atoms: _1346  and  _1347
REMARK  625  A    between atoms: _1347  and  _1348
REMARK  626  A    between atoms: _1350  and  _1351
REMARK  627  A    between atoms: _1351  and  _1352
REMARK  628  A    between atoms: _1351  and  _1354
REMARK  629  A    between atoms: _1357  and  _1358
REMARK  630  A    between atoms: _1358  and  _1359
REMARK  631  A    between atoms: _1358  and  _1361
REMARK  632  A    between atoms: _1361  and  _1362
REMARK  633  A    between atoms: _1365  and  _1366
REMARK  634  A    between atoms: _1366  and  _1367
REMARK  635  A    between atoms: _1366  and  _1369
REMARK  636  A    between atoms: _1369  and  _1370
REMARK  637  A    between atoms: _1373  and  _1374
REMARK  638  A    between atoms: _1374  and  _1375
REMARK  639  A    between atoms: _1374  and  _1377
REMARK  640  A    between atoms: _1377  and  _1378
REMARK  641  A    between atoms: _1383  and  _1384
REMARK  642  A    between atoms: _1384  and  _1385
REMARK  643  A    between atoms: _1384  and  _1387
REMARK  644  A    between atoms: _1387  and  _1388
REMARK  645  A    between atoms: _1391  and  _1392
REMARK  646  A    between atoms: _1392  and  _1393
REMARK  647  A    between atoms: _1392  and  _1395
REMARK  648  A    between atoms: _1395  and  _1396
REMARK  649  A    between atoms: _1396  and  _1397
REMARK  650  A    between atoms: _1397  and  _1398
REMARK  651  A    between atoms: _1400  and  _1401
REMARK  652  A    between atoms: _1401  and  _1402
REMARK  653  A    between atoms: _1401  and  _1404
REMARK  654  A    between atoms: _1404  and  _1405
REMARK  655  A    between atoms: _1405  and  _1406
REMARK  656  A    between atoms: _1409  and  _1410
REMARK  657  A    between atoms: _1410  and  _1411
REMARK  658  A    between atoms: _1410  and  _1413
REMARK  659  A    between atoms: _1413  and  _1414
REMARK  660  A    between atoms: _1417  and  _1418
REMARK  661  A    between atoms: _1418  and  _1419
REMARK  662  A    between atoms: _1418  and  _1421
REMARK  663  A    between atoms: _1421  and  _1422
REMARK  664  A    between atoms: _1422  and  _1423
REMARK  665  A    between atoms: _1426  and  _1427
REMARK  666  A    between atoms: _1427  and  _1428
REMARK  667  A    between atoms: _1427  and  _1430
REMARK  668  A    between atoms: _1433  and  _1434
REMARK  669  A    between atoms: _1434  and  _1435
REMARK  670  A    between atoms: _1434  and  _1437
REMARK  671  A    between atoms: _1437  and  _1438
REMARK  672  A    between atoms: _1438  and  _1439
REMARK  673  A    between atoms: _1442  and  _1443
REMARK  674  A    between atoms: _1443  and  _1444
REMARK  675  A    between atoms: _1443  and  _1446
REMARK  676  A    between atoms: _1446  and  _1447
REMARK  677  A    between atoms: _1454  and  _1455
REMARK  678  A    between atoms: _1455  and  _1456
REMARK  679  A    between atoms: _1455  and  _1458
REMARK  680  A    between atoms: _1458  and  _1459
REMARK  681  A    between atoms: _1462  and  _1463
REMARK  682  A    between atoms: _1463  and  _1464
REMARK  683  A    between atoms: _1463  and  _1466
REMARK  684  A    between atoms: _1466  and  _1467
REMARK  685  A    between atoms: _1467  and  _1468
REMARK  686  A    between atoms: _1471  and  _1472
REMARK  687  A    between atoms: _1472  and  _1473
REMARK  688  A    between atoms: _1472  and  _1475
REMARK  689  A    between atoms: _1475  and  _1476
REMARK  690  A    between atoms: _1476  and  _1477
REMARK  691  A    between atoms: _1480  and  _1481
REMARK  692  A    between atoms: _1481  and  _1482
REMARK  693  A    between atoms: _1481  and  _1484
REMARK  694  A    between atoms: _1484  and  _1485
REMARK  695  A    between atoms: _1485  and  _1486
REMARK  696  A    between atoms: _1486  and  _1487
REMARK  697  A    between atoms: _1491  and  _1492
REMARK  698  A    between atoms: _1492  and  _1493
REMARK  699  A    between atoms: _1492  and  _1495
REMARK  700  A    between atoms: _1495  and  _1496
REMARK  701  A    between atoms: _1496  and  _1497
REMARK  702  A    between atoms: _1497  and  _1498
REMARK  703  A    between atoms: _1502  and  _1503
REMARK  704  A    between atoms: _1503  and  _1504
REMARK  705  A    between atoms: _1503  and  _1506
REMARK  706  A    between atoms: _1506  and  _1507
REMARK  707  A    between atoms: _1510  and  _1511
REMARK  708  A    between atoms: _1511  and  _1512
REMARK  709  A    between atoms: _1511  and  _1514
REMARK  710  A    between atoms: _1514  and  _1515
REMARK  711  A    between atoms: _1515  and  _1516
REMARK  712  A    between atoms: _1516  and  _1517
REMARK  713  A    between atoms: _1519  and  _1520
REMARK  714  A    between atoms: _1520  and  _1521
REMARK  715  A    between atoms: _1520  and  _1523
REMARK  716  A    between atoms: _1523  and  _1524
REMARK  717  A    between atoms: _1524  and  _1525
REMARK  718  A    between atoms: _1528  and  _1529
REMARK  719  A    between atoms: _1529  and  _1530
REMARK  720  A    between atoms: _1529  and  _1532
REMARK  721  A    between atoms: _1532  and  _1533
REMARK  722  A    between atoms: _1536  and  _1537
REMARK  723  A    between atoms: _1537  and  _1538
REMARK  724  A    between atoms: _1537  and  _1540
REMARK  725  A    between atoms: _1543  and  _1544
REMARK  726  A    between atoms: _1544  and  _1545
REMARK  727  A    between atoms: _1544  and  _1547
REMARK  728  A    between atoms: _1547  and  _1548
REMARK  729  A    between atoms: _1548  and  _1549
REMARK  730  A    between atoms: _1549  and  _1550
REMARK  731  A    between atoms: _1552  and  _1553
REMARK  732  A    between atoms: _1553  and  _1554
REMARK  733  A    between atoms: _1553  and  _1556
REMARK  734  A    between atoms: _1556  and  _1557
REMARK  735  A    between atoms: _1557  and  _1558
REMARK  736  A    between atoms: _1558  and  _1559
REMARK  737  A    between atoms: _1561  and  _1562
REMARK  738  A    between atoms: _1562  and  _1563
REMARK  739  A    between atoms: _1562  and  _1565
REMARK  740  A    between atoms: _1565  and  _1566
REMARK  741  A    between atoms: _1571  and  _1572
REMARK  742  A    between atoms: _1572  and  _1573
REMARK  743  A    between atoms: _1572  and  _1575
REMARK  744  A    between atoms: _1577  and  _1578
REMARK  745  A    between atoms: _1578  and  _1579
REMARK  746  A    between atoms: _1578  and  _1581
REMARK  747  A    between atoms: _1581  and  _1582
REMARK  748  A    between atoms: _1582  and  _1583
REMARK  749  A    between atoms: _1586  and  _1587
REMARK  750  A    between atoms: _1587  and  _1588
REMARK  751  A    between atoms: _1587  and  _1590
REMARK  752  A    between atoms: _1590  and  _1591
REMARK  753  A    between atoms: _1597  and  _1598
REMARK  754  A    between atoms: _1598  and  _1599
REMARK  755  A    between atoms: _1598  and  _1601
REMARK  756  A    between atoms: _1601  and  _1602
REMARK  757  A    between atoms: _1605  and  _1606
REMARK  758  A    between atoms: _1606  and  _1607
REMARK  759  A    between atoms: _1609  and  _1610
REMARK  760  A    between atoms: _1610  and  _1611
REMARK  761  A    between atoms: _1610  and  _1613
REMARK  762  A    between atoms: _1613  and  _1614
REMARK  763  A    between atoms: _1622  and  _1623
REMARK  764  A    between atoms: _1628  and  _1629
REMARK  765  A    between atoms: _1629  and  _1630
REMARK  766  A    between atoms: _1629  and  _1632
REMARK  767  A    between atoms: _1632  and  _1633
REMARK  768  A    between atoms: _1636  and  _1637
REMARK  769  A    between atoms: _1637  and  _1638
REMARK  770  A    between atoms: _1637  and  _1640
REMARK  771  A    between atoms: _1643  and  _1644
REMARK  772  A    between atoms: _1644  and  _1645
REMARK  773  A    between atoms: _1644  and  _1647
REMARK  774  A    between atoms: _1647  and  _1648
REMARK  775  A    between atoms: _1651  and  _1652
REMARK  776  A    between atoms: _1652  and  _1653
REMARK  777  A    between atoms: _1652  and  _1655
REMARK  778  A    between atoms: _1655  and  _1656
REMARK  779  A    between atoms: _1662  and  _1663
REMARK  780  A    between atoms: _1663  and  _1664
REMARK  781  A    between atoms: _1663  and  _1666
REMARK  782  A    between atoms: _1669  and  _1670
REMARK  783  A    between atoms: _1670  and  _1671
REMARK  784  A    between atoms: _1670  and  _1673
REMARK  785  A    between atoms: _1673  and  _1674
REMARK  786  A    between atoms: _1674  and  _1675
REMARK                            x       y       z     vdW  Elec       q    Type
REMARK                         _______ _______ _______ _____ _____    ______ ____
ROOT
ATOM      1  C   UNL     1       8.652  10.785  28.846  0.00  0.00    +0.279 C 
ATOM      2  O   UNL     1       8.070   9.764  28.466  0.00  0.00    -0.279 OA
ENDROOT
TORSDOF 0
REMARK  Name = /Users/mlugowska/PhD/ML_residence_time_prediction/protein_files/5J64_protein.pdb
REMARK  786 active torsions:
REMARK  status: ('A' for Active; 'I' for Inactive)
REMARK    1  A    between atoms: _2  and  _3
REMARK    2  A    between atoms: _2  and  _5
REMARK    3  A    between atoms: _5  and  _6
REMARK    4  A    between atoms: _6  and  _7
REMARK    5  A    between atoms: _10  and  _11
REMARK    6  A    between atoms: _11  and  _12
REMARK    7  A    between atoms: _11  and  _14
REMARK    8  A    between atoms: _17  and  _18
REMARK    9  A    between atoms: _18  and  _19
REMARK   10  A    between atoms: _18  and  _21
REMARK   11  A    between atoms: _21  and  _22
REMARK   12  A    between atoms: _22  and  _23
REMARK   13  A    between atoms: _26  and  _27
REMARK   14  A    between atoms: _27  and  _28
REMARK   15  A    between atoms: _27  and  _30
REMARK   16  A    between atoms: _33  and  _34
REMARK   17  A    between atoms: _34  and  _35
REMARK   18  A    between atoms: _34  and  _37
REMARK   19  A    between atoms: _37  and  _38
REMARK   20  A    between atoms: _44  and  _45
REMARK   21  A    between atoms: _45  and  _46
REMARK   22  A    between atoms: _49  and  _50
REMARK   23  A    between atoms: _50  and  _51
REMARK   24  A    between atoms: _50  and  _53
REMARK   25  A    between atoms: _53  and  _54
REMARK   26  A    between atoms: _60  and  _61
REMARK   27  A    between atoms: _61  and  _62
REMARK   28  A    between atoms: _61  and  _64
REMARK   29  A    between atoms: _64  and  _65
REMARK   30  A    between atoms: _65  and  _66
REMARK   31  A    between atoms: _69  and  _70
REMARK   32  A    between atoms: _70  and  _71
REMARK   33  A    between atoms: _74  and  _75
REMARK   34  A    between atoms: _75  and  _76
REMARK   35  A    between atoms: _75  and  _78
REMARK   36  A    between atoms: _78  and  _79
REMARK   37  A    between atoms: _79  and  _80
REMARK   38  A    between atoms: _83  and  _84
REMARK   39  A    between atoms: _84  and  _85
REMARK   40  A    between atoms: _84  and  _87
REMARK   41  A    between atoms: _87  and  _88
REMARK   42  A    between atoms: _91  and  _92
REMARK   43  A    between atoms: _92  and  _93
REMARK   44  A    between atoms: _96  and  _97
REMARK   45  A    between atoms: _97  and  _98
REMARK   46  A    between atoms: _97  and  _100
REMARK   47  A    between atoms: _100  and  _101
REMARK   48  A    between atoms: _101  and  _102
REMARK   49  A    between atoms: _105  and  _106
REMARK   50  A    between atoms: _106  and  _107
REMARK   51  A    between atoms: _106  and  _109
REMARK   52  A    between atoms: _109  and  _110
REMARK   53  A    between atoms: _113  and  _114
REMARK   54  A    between atoms: _114  and  _115
REMARK   55  A    between atoms: _114  and  _117
REMARK   56  A    between atoms: _117  and  _118
REMARK   57  A    between atoms: _118  and  _119
REMARK   58  A    between atoms: _121  and  _122
REMARK   59  A    between atoms: _122  and  _123
REMARK   60  A    between atoms: _122  and  _125
REMARK   61  A    between atoms: _127  and  _128
REMARK   62  A    between atoms: _128  and  _129
REMARK   63  A    between atoms: _128  and  _131
REMARK   64  A    between atoms: _131  and  _132
REMARK   65  A    between atoms: _135  and  _136
REMARK   66  A    between atoms: _136  and  _137
REMARK   67  A    between atoms: _136  and  _139
REMARK   68  A    between atoms: _139  and  _140
REMARK   69  A    between atoms: _143  and  _144
REMARK   70  A    between atoms: _144  and  _145
REMARK   71  A    between atoms: _144  and  _147
REMARK   72  A    between atoms: _147  and  _148
REMARK   73  A    between atoms: _151  and  _152
REMARK   74  A    between atoms: _152  and  _153
REMARK   75  A    between atoms: _152  and  _155
REMARK   76  A    between atoms: _155  and  _156
REMARK   77  A    between atoms: _159  and  _160
REMARK   78  A    between atoms: _160  and  _161
REMARK   79  A    between atoms: _160  and  _163
REMARK   80  A    between atoms: _166  and  _167
REMARK   81  A    between atoms: _167  and  _170
REMARK   82  A    between atoms: _170  and  _171
REMARK   83  A    between atoms: _181  and  _183
REMARK   84  A    between atoms: _183  and  _184
REMARK   85  A    between atoms: _189  and  _194
REMARK   86  A    between atoms: _192  and  _195
REMARK   87  A    between atoms: _193  and  _194
REMARK   88  A    between atoms: _195  and  _196
REMARK   89  A    between atoms: _201  and  _202
REMARK   90  A    between atoms: _202  and  _203
REMARK   91  A    between atoms: _202  and  _205
REMARK   92  A    between atoms: _207  and  _208
REMARK   93  A    between atoms: _208  and  _209
REMARK   94  A    between atoms: _208  and  _211
REMARK   95  A    between atoms: _211  and  _212
REMARK   96  A    between atoms: _215  and  _216
REMARK   97  A    between atoms: _216  and  _217
REMARK   98  A    between atoms: _216  and  _219
REMARK   99  A    between atoms: _219  and  _220
REMARK  100  A    between atoms: _220  and  _221
REMARK  101  A    between atoms: _221  and  _222
REMARK  102  A    between atoms: _224  and  _225
REMARK  103  A    between atoms: _225  and  _226
REMARK  104  A    between atoms: _225  and  _228
REMARK  105  A    between atoms: _228  and  _229
REMARK  106  A    between atoms: _229  and  _230
REMARK  107  A    between atoms: _233  and  _234
REMARK  108  A    between atoms: _234  and  _235
REMARK  109  A    between atoms: _234  and  _237
REMARK  110  A    between atoms: _237  and  _238
REMARK  111  A    between atoms: _241  and  _242
REMARK  112  A    between atoms: _242  and  _243
REMARK  113  A    between atoms: _242  and  _245
REMARK  114  A    between atoms: _245  and  _246
REMARK  115  A    between atoms: _252  and  _253
REMARK  116  A    between atoms: _253  and  _254
REMARK  117  A    between atoms: _253  and  _256
REMARK  118  A    between atoms: _256  and  _257
REMARK  119  A    between atoms: _260  and  _261
REMARK  120  A    between atoms: _261  and  _262
REMARK  121  A    between atoms: _261  and  _264
REMARK  122  A    between atoms: _264  and  _265
REMARK  123  A    between atoms: _265  and  _266
REMARK  124  A    between atoms: _266  and  _267
REMARK  125  A    between atoms: _271  and  _272
REMARK  126  A    between atoms: _272  and  _273
REMARK  127  A    between atoms: _272  and  _275
REMARK  128  A    between atoms: _275  and  _276
REMARK  129  A    between atoms: _276  and  _277
REMARK  130  A    between atoms: _280  and  _281
REMARK  131  A    between atoms: _281  and  _282
REMARK  132  A    between atoms: _281  and  _284
REMARK  133  A    between atoms: _284  and  _285
REMARK  134  A    between atoms: _288  and  _289
REMARK  135  A    between atoms: _289  and  _292
REMARK  136  A    between atoms: _292  and  _293
REMARK  137  A    between atoms: _309  and  _310
REMARK  138  A    between atoms: _309  and  _312
REMARK  139  A    between atoms: _312  and  _313
REMARK  140  A    between atoms: _316  and  _317
REMARK  141  A    between atoms: _317  and  _318
REMARK  142  A    between atoms: _317  and  _320
REMARK  143  A    between atoms: _322  and  _323
REMARK  144  A    between atoms: _323  and  _324
REMARK  145  A    between atoms: _323  and  _326
REMARK  146  A    between atoms: _328  and  _329
REMARK  147  A    between atoms: _329  and  _330
REMARK  148  A    between atoms: _329  and  _332
REMARK  149  A    between atoms: _332  and  _333
REMARK  150  A    between atoms: _336  and  _337
REMARK  151  A    between atoms: _337  and  _338
REMARK  152  A    between atoms: _341  and  _342
REMARK  153  A    between atoms: _342  and  _343
REMARK  154  A    between atoms: _342  and  _345
REMARK  155  A    between atoms: _345  and  _346
REMARK  156  A    between atoms: _349  and  _350
REMARK  157  A    between atoms: _350  and  _351
REMARK  158  A    between atoms: _350  and  _353
REMARK  159  A    between atoms: _353  and  _354
REMARK  160  A    between atoms: _357  and  _358
REMARK  161  A    between atoms: _358  and  _359
REMARK  162  A    between atoms: _358  and  _361
REMARK  163  A    between atoms: _361  and  _362
REMARK  164  A    between atoms: _362  and  _363
REMARK  165  A    between atoms: _363  and  _364
REMARK  166  A    between atoms: _366  and  _367
REMARK  167  A    between atoms: _367  and  _368
REMARK  168  A    between atoms: _367  and  _370
REMARK  169  A    between atoms: _370  and  _371
REMARK  170  A    between atoms: _374  and  _375
REMARK  171  A    between atoms: _375  and  _376
REMARK  172  A    between atoms: _375  and  _378
REMARK  173  A    between atoms: _378  and  _379
REMARK  174  A    between atoms: _379  and  _380
REMARK  175  A    between atoms: _380  and  _381
REMARK  176  A    between atoms: _385  and  _386
REMARK  177  A    between atoms: _386  and  _387
REMARK  178  A    between atoms: _386  and  _389
REMARK  179  A    between atoms: _389  and  _390
REMARK  180  A    between atoms: _397  and  _398
REMARK  181  A    between atoms: _398  and  _399
REMARK  182  A    between atoms: _398  and  _401
REMARK  183  A    between atoms: _401  and  _402
REMARK  184  A    between atoms: _402  and  _403
REMARK  185  A    between atoms: _406  and  _407
REMARK  186  A    between atoms: _407  and  _408
REMARK  187  A    between atoms: _407  and  _410
REMARK  188  A    between atoms: _412  and  _413
REMARK  189  A    between atoms: _413  and  _414
REMARK  190  A    between atoms: _413  and  _416
REMARK  191  A    between atoms: _416  and  _417
REMARK  192  A    between atoms: _420  and  _421
REMARK  193  A    between atoms: _421  and  _422
REMARK  194  A    between atoms: _421  and  _424
REMARK  195  A    between atoms: _427  and  _428
REMARK  196  A    between atoms: _428  and  _429
REMARK  197  A    between atoms: _428  and  _431
REMARK  198  A    between atoms: _431  and  _432
REMARK  199  A    between atoms: _436  and  _437
REMARK  200  A    between atoms: _442  and  _443
REMARK  201  A    between atoms: _443  and  _444
REMARK  202  A    between atoms: _443  and  _446
REMARK  203  A    between atoms: _448  and  _449
REMARK  204  A    between atoms: _449  and  _450
REMARK  205  A    between atoms: _449  and  _452
REMARK  206  A    between atoms: _452  and  _453
REMARK  207  A    between atoms: _453  and  _454
REMARK  208  A    between atoms: _454  and  _455
REMARK  209  A    between atoms: _457  and  _458
REMARK  210  A    between atoms: _458  and  _459
REMARK  211  A    between atoms: _458  and  _461
REMARK  212  A    between atoms: _461  and  _462
REMARK  213  A    between atoms: _465  and  _466
REMARK  214  A    between atoms: _466  and  _467
REMARK  215  A    between atoms: _466  and  _469
REMARK  216  A    between atoms: _469  and  _470
REMARK  217  A    between atoms: _473  and  _474
REMARK  218  A    between atoms: _474  and  _475
REMARK  219  A    between atoms: _474  and  _477
REMARK  220  A    between atoms: _479  and  _480
REMARK  221  A    between atoms: _480  and  _481
REMARK  222  A    between atoms: _483  and  _484
REMARK  223  A    between atoms: _484  and  _485
REMARK  224  A    between atoms: _484  and  _487
REMARK  225  A    between atoms: _487  and  _488
REMARK  226  A    between atoms: _488  and  _489
REMARK  227  A    between atoms: _489  and  _490
REMARK  228  A    between atoms: _492  and  _493
REMARK  229  A    between atoms: _493  and  _494
REMARK  230  A    between atoms: _493  and  _496
REMARK  231  A    between atoms: _496  and  _497
REMARK  232  A    between atoms: _497  and  _498
REMARK  233  A    between atoms: _501  and  _502
REMARK  234  A    between atoms: _502  and  _503
REMARK  235  A    between atoms: _502  and  _505
REMARK  236  A    between atoms: _505  and  _506
REMARK  237  A    between atoms: _509  and  _510
REMARK  238  A    between atoms: _510  and  _511
REMARK  239  A    between atoms: _510  and  _513
REMARK  240  A    between atoms: _513  and  _514
REMARK  241  A    between atoms: _519  and  _520
REMARK  242  A    between atoms: _520  and  _521
REMARK  243  A    between atoms: _520  and  _523
REMARK  244  A    between atoms: _523  and  _524
REMARK  245  A    between atoms: _527  and  _528
REMARK  246  A    between atoms: _528  and  _529
REMARK  247  A    between atoms: _528  and  _531
REMARK  248  A    between atoms: _531  and  _532
REMARK  249  A    between atoms: _535  and  _536
REMARK  250  A    between atoms: _536  and  _537
REMARK  251  A    between atoms: _536  and  _539
REMARK  252  A    between atoms: _539  and  _540
REMARK  253  A    between atoms: _543  and  _544
REMARK  254  A    between atoms: _544  and  _545
REMARK  255  A    between atoms: _544  and  _547
REMARK  256  A    between atoms: _547  and  _548
REMARK  257  A    between atoms: _552  and  _553
REMARK  258  A    between atoms: _558  and  _559
REMARK  259  A    between atoms: _559  and  _560
REMARK  260  A    between atoms: _559  and  _562
REMARK  261  A    between atoms: _562  and  _563
REMARK  262  A    between atoms: _566  and  _567
REMARK  263  A    between atoms: _567  and  _568
REMARK  264  A    between atoms: _567  and  _570
REMARK  265  A    between atoms: _570  and  _571
REMARK  266  A    between atoms: _571  and  _572
REMARK  267  A    between atoms: _572  and  _573
REMARK  268  A    between atoms: _575  and  _576
REMARK  269  A    between atoms: _576  and  _577
REMARK  270  A    between atoms: _576  and  _579
REMARK  271  A    between atoms: _579  and  _580
REMARK  272  A    between atoms: _580  and  _581
REMARK  273  A    between atoms: _584  and  _585
REMARK  274  A    between atoms: _585  and  _586
REMARK  275  A    between atoms: _585  and  _588
REMARK  276  A    between atoms: _588  and  _589
REMARK  277  A    between atoms: _592  and  _593
REMARK  278  A    between atoms: _593  and  _594
REMARK  279  A    between atoms: _593  and  _596
REMARK  280  A    between atoms: _596  and  _597
REMARK  281  A    between atoms: _597  and  _598
REMARK  282  A    between atoms: _598  and  _599
REMARK  283  A    between atoms: _603  and  _604
REMARK  284  A    between atoms: _604  and  _605
REMARK  285  A    between atoms: _604  and  _607
REMARK  286  A    between atoms: _610  and  _611
REMARK  287  A    between atoms: _611  and  _612
REMARK  288  A    between atoms: _611  and  _614
REMARK  289  A    between atoms: _614  and  _615
REMARK  290  A    between atoms: _618  and  _619
REMARK  291  A    between atoms: _619  and  _620
REMARK  292  A    between atoms: _619  and  _622
REMARK  293  A    between atoms: _625  and  _626
REMARK  294  A    between atoms: _626  and  _627
REMARK  295  A    between atoms: _626  and  _629
REMARK  296  A    between atoms: _629  and  _630
REMARK  297  A    between atoms: _633  and  _634
REMARK  298  A    between atoms: _634  and  _635
REMARK  299  A    between atoms: _634  and  _637
REMARK  300  A    between atoms: _640  and  _641
REMARK  301  A    between atoms: _641  and  _642
REMARK  302  A    between atoms: _641  and  _644
REMARK  303  A    between atoms: _644  and  _645
REMARK  304  A    between atoms: _648  and  _649
REMARK  305  A    between atoms: _649  and  _650
REMARK  306  A    between atoms: _649  and  _652
REMARK  307  A    between atoms: _655  and  _656
REMARK  308  A    between atoms: _656  and  _657
REMARK  309  A    between atoms: _659  and  _660
REMARK  310  A    between atoms: _660  and  _661
REMARK  311  A    between atoms: _660  and  _663
REMARK  312  A    between atoms: _663  and  _664
REMARK  313  A    between atoms: _667  and  _668
REMARK  314  A    between atoms: _668  and  _669
REMARK  315  A    between atoms: _671  and  _672
REMARK  316  A    between atoms: _672  and  _673
REMARK  317  A    between atoms: _672  and  _675
REMARK  318  A    between atoms: _675  and  _676
REMARK  319  A    between atoms: _676  and  _677
REMARK  320  A    between atoms: _679  and  _680
REMARK  321  A    between atoms: _680  and  _681
REMARK  322  A    between atoms: _680  and  _683
REMARK  323  A    between atoms: _686  and  _687
REMARK  324  A    between atoms: _687  and  _688
REMARK  325  A    between atoms: _687  and  _690
REMARK  326  A    between atoms: _690  and  _691
REMARK  327  A    between atoms: _691  and  _692
REMARK  328  A    between atoms: _692  and  _693
REMARK  329  A    between atoms: _695  and  _696
REMARK  330  A    between atoms: _696  and  _697
REMARK  331  A    between atoms: _700  and  _701
REMARK  332  A    between atoms: _701  and  _702
REMARK  333  A    between atoms: _701  and  _704
REMARK  334  A    between atoms: _704  and  _705
REMARK  335  A    between atoms: _708  and  _709
REMARK  336  A    between atoms: _709  and  _710
REMARK  337  A    between atoms: _709  and  _712
REMARK  338  A    between atoms: _712  and  _713
REMARK  339  A    between atoms: _716  and  _717
REMARK  340  A    between atoms: _717  and  _720
REMARK  341  A    between atoms: _720  and  _721
REMARK  342  A    between atoms: _733  and  _734
REMARK  343  A    between atoms: _733  and  _735
REMARK  344  A    between atoms: _741  and  _744
REMARK  345  A    between atoms: _744  and  _745
REMARK  346  A    between atoms: _758  and  _759
REMARK  347  A    between atoms: _758  and  _761
REMARK  348  A    between atoms: _759  and  _760
REMARK  349  A    between atoms: _765  and  _766
REMARK  350  A    between atoms: _768  and  _769
REMARK  351  A    between atoms: _769  and  _770
REMARK  352  A    between atoms: _769  and  _772
REMARK  353  A    between atoms: _775  and  _776
REMARK  354  A    between atoms: _776  and  _777
REMARK  355  A    between atoms: _776  and  _779
REMARK  356  A    between atoms: _779  and  _780
REMARK  357  A    between atoms: _783  and  _784
REMARK  358  A    between atoms: _784  and  _785
REMARK  359  A    between atoms: _788  and  _789
REMARK  360  A    between atoms: _789  and  _790
REMARK  361  A    between atoms: _789  and  _792
REMARK  362  A    between atoms: _792  and  _793
REMARK  363  A    between atoms: _793  and  _794
REMARK  364  A    between atoms: _794  and  _795
REMARK  365  A    between atoms: _797  and  _798
REMARK  366  A    between atoms: _798  and  _799
REMARK  367  A    between atoms: _798  and  _801
REMARK  368  A    between atoms: _803  and  _804
REMARK  369  A    between atoms: _804  and  _805
REMARK  370  A    between atoms: _807  and  _808
REMARK  371  A    between atoms: _808  and  _809
REMARK  372  A    between atoms: _808  and  _811
REMARK  373  A    between atoms: _814  and  _815
REMARK  374  A    between atoms: _815  and  _816
REMARK  375  A    between atoms: _815  and  _818
REMARK  376  A    between atoms: _818  and  _819
REMARK  377  A    between atoms: _819  and  _820
REMARK  378  A    between atoms: _820  and  _821
REMARK  379  A    between atoms: _823  and  _824
REMARK  380  A    between atoms: _824  and  _825
REMARK  381  A    between atoms: _828  and  _829
REMARK  382  A    between atoms: _829  and  _830
REMARK  383  A    between atoms: _829  and  _832
REMARK  384  A    between atoms: _832  and  _833
REMARK  385  A    between atoms: _839  and  _840
REMARK  386  A    between atoms: _840  and  _841
REMARK  387  A    between atoms: _840  and  _843
REMARK  388  A    between atoms: _843  and  _844
REMARK  389  A    between atoms: _844  and  _845
REMARK  390  A    between atoms: _847  and  _848
REMARK  391  A    between atoms: _848  and  _849
REMARK  392  A    between atoms: _848  and  _851
REMARK  393  A    between atoms: _851  and  _852
REMARK  394  A    between atoms: _852  and  _853
REMARK  395  A    between atoms: _856  and  _857
REMARK  396  A    between atoms: _857  and  _858
REMARK  397  A    between atoms: _861  and  _862
REMARK  398  A    between atoms: _862  and  _863
REMARK  399  A    between atoms: _862  and  _865
REMARK  400  A    between atoms: _865  and  _866
REMARK  401  A    between atoms: _869  and  _870
REMARK  402  A    between atoms: _870  and  _871
REMARK  403  A    between atoms: _870  and  _873
REMARK  404  A    between atoms: _873  and  _874
REMARK  405  A    between atoms: _874  and  _875
REMARK  406  A    between atoms: _878  and  _879
REMARK  407  A    between atoms: _879  and  _880
REMARK  408  A    between atoms: _883  and  _884
REMARK  409  A    between atoms: _884  and  _885
REMARK  410  A    between atoms: _887  and  _888
REMARK  411  A    between atoms: _888  and  _889
REMARK  412  A    between atoms: _892  and  _893
REMARK  413  A    between atoms: _893  and  _894
REMARK  414  A    between atoms: _893  and  _896
REMARK  415  A    between atoms: _896  and  _897
REMARK  416  A    between atoms: _900  and  _901
REMARK  417  A    between atoms: _901  and  _902
REMARK  418  A    between atoms: _901  and  _904
REMARK  419  A    between atoms: _904  and  _905
REMARK  420  A    between atoms: _908  and  _909
REMARK  421  A    between atoms: _909  and  _910
REMARK  422  A    between atoms: _909  and  _912
REMARK  423  A    between atoms: _914  and  _915
REMARK  424  A    between atoms: _915  and  _916
REMARK  425  A    between atoms: _915  and  _918
REMARK  426  A    between atoms: _918  and  _919
REMARK  427  A    between atoms: _919  and  _920
REMARK  428  A    between atoms: _922  and  _923
REMARK  429  A    between atoms: _923  and  _924
REMARK  430  A    between atoms: _923  and  _926
REMARK  431  A    between atoms: _926  and  _927
REMARK  432  A    between atoms: _930  and  _931
REMARK  433  A    between atoms: _931  and  _932
REMARK  434  A    between atoms: _934  and  _935
REMARK  435  A    between atoms: _935  and  _936
REMARK  436  A    between atoms: _935  and  _938
REMARK  437  A    between atoms: _938  and  _939
REMARK  438  A    between atoms: _939  and  _940
REMARK  439  A    between atoms: _943  and  _944
REMARK  440  A    between atoms: _944  and  _945
REMARK  441  A    between atoms: _944  and  _947
REMARK  442  A    between atoms: _947  and  _948
REMARK  443  A    between atoms: _954  and  _955
REMARK  444  A    between atoms: _955  and  _956
REMARK  445  A    between atoms: _958  and  _959
REMARK  446  A    between atoms: _959  and  _960
REMARK  447  A    between atoms: _959  and  _962
REMARK  448  A    between atoms: _965  and  _966
REMARK  449  A    between atoms: _966  and  _967
REMARK  450  A    between atoms: _969  and  _970
REMARK  451  A    between atoms: _970  and  _971
REMARK  452  A    between atoms: _970  and  _973
REMARK  453  A    between atoms: _973  and  _974
REMARK  454  A    between atoms: _980  and  _981
REMARK  455  A    between atoms: _981  and  _982
REMARK  456  A    between atoms: _981  and  _984
REMARK  457  A    between atoms: _984  and  _985
REMARK  458  A    between atoms: _992  and  _993
REMARK  459  A    between atoms: _993  and  _994
REMARK  460  A    between atoms: _993  and  _996
REMARK  461  A    between atoms: _998  and  _999
REMARK  462  A    between atoms: _999  and  _1000
REMARK  463  A    between atoms: _1003  and  _1004
REMARK  464  A    between atoms: _1004  and  _1005
REMARK  465  A    between atoms: _1004  and  _1007
REMARK  466  A    between atoms: _1007  and  _1008
REMARK  467  A    between atoms: _1015  and  _1016
REMARK  468  A    between atoms: _1016  and  _1017
REMARK  469  A    between atoms: _1016  and  _1019
REMARK  470  A    between atoms: _1019  and  _1020
REMARK  471  A    between atoms: _1023  and  _1024
REMARK  472  A    between atoms: _1024  and  _1025
REMARK  473  A    between atoms: _1024  and  _1027
REMARK  474  A    between atoms: _1030  and  _1031
REMARK  475  A    between atoms: _1031  and  _1032
REMARK  476  A    between atoms: _1035  and  _1036
REMARK  477  A    between atoms: _1036  and  _1037
REMARK  478  A    between atoms: _1036  and  _1039
REMARK  479  A    between atoms: _1039  and  _1040
REMARK  480  A    between atoms: _1040  and  _1041
REMARK  481  A    between atoms: _1044  and  _1045
REMARK  482  A    between atoms: _1045  and  _1046
REMARK  483  A    between atoms: _1045  and  _1048
REMARK  484  A    between atoms: _1048  and  _1049
REMARK  485  A    between atoms: _1049  and  _1050
REMARK  486  A    between atoms: _1050  and  _1051
REMARK  487  A    between atoms: _1053  and  _1054
REMARK  488  A    between atoms: _1054  and  _1055
REMARK  489  A    between atoms: _1054  and  _1057
REMARK  490  A    between atoms: _1060  and  _1061
REMARK  491  A    between atoms: _1061  and  _1062
REMARK  492  A    between atoms: _1061  and  _1064
REMARK  493  A    between atoms: _1067  and  _1068
REMARK  494  A    between atoms: _1068  and  _1069
REMARK  495  A    between atoms: _1068  and  _1071
REMARK  496  A    between atoms: _1074  and  _1075
REMARK  497  A    between atoms: _1075  and  _1076
REMARK  498  A    between atoms: _1075  and  _1078
REMARK  499  A    between atoms: _1078  and  _1079
REMARK  500  A    between atoms: _1082  and  _1083
REMARK  501  A    between atoms: _1083  and  _1084
REMARK  502  A    between atoms: _1083  and  _1086
REMARK  503  A    between atoms: _1089  and  _1090
REMARK  504  A    between atoms: _1090  and  _1091
REMARK  505  A    between atoms: _1090  and  _1093
REMARK  506  A    between atoms: _1093  and  _1094
REMARK  507  A    between atoms: _1094  and  _1095
REMARK  508  A    between atoms: _1095  and  _1096
REMARK  509  A    between atoms: _1098  and  _1099
REMARK  510  A    between atoms: _1099  and  _1100
REMARK  511  A    between atoms: _1099  and  _1102
REMARK  512  A    between atoms: _1102  and  _1103
REMARK  513  A    between atoms: _1108  and  _1109
REMARK  514  A    between atoms: _1109  and  _1110
REMARK  515  A    between atoms: _1109  and  _1112
REMARK  516  A    between atoms: _1112  and  _1113
REMARK  517  A    between atoms: _1116  and  _1117
REMARK  518  A    between atoms: _1117  and  _1118
REMARK  519  A    between atoms: _1117  and  _1120
REMARK  520  A    between atoms: _1120  and  _1121
REMARK  521  A    between atoms: _1124  and  _1125
REMARK  522  A    between atoms: _1125  and  _1126
REMARK  523  A    between atoms: _1125  and  _1128
REMARK  524  A    between atoms: _1128  and  _1129
REMARK  525  A    between atoms: _1132  and  _1133
REMARK  526  A    between atoms: _1133  and  _1134
REMARK  527  A    between atoms: _1133  and  _1136
REMARK  528  A    between atoms: _1136  and  _1137
REMARK  529  A    between atoms: _1137  and  _1138
REMARK  530  A    between atoms: _1141  and  _1142
REMARK  531  A    between atoms: _1142  and  _1143
REMARK  532  A    between atoms: _1142  and  _1145
REMARK  533  A    between atoms: _1145  and  _1146
REMARK  534  A    between atoms: _1146  and  _1147
REMARK  535  A    between atoms: _1150  and  _1151
REMARK  536  A    between atoms: _1151  and  _1152
REMARK  537  A    between atoms: _1151  and  _1154
REMARK  538  A    between atoms: _1154  and  _1155
REMARK  539  A    between atoms: _1162  and  _1163
REMARK  540  A    between atoms: _1163  and  _1164
REMARK  541  A    between atoms: _1167  and  _1168
REMARK  542  A    between atoms: _1168  and  _1169
REMARK  543  A    between atoms: _1168  and  _1171
REMARK  544  A    between atoms: _1171  and  _1172
REMARK  545  A    between atoms: _1181  and  _1182
REMARK  546  A    between atoms: _1182  and  _1183
REMARK  547  A    between atoms: _1182  and  _1185
REMARK  548  A    between atoms: _1185  and  _1186
REMARK  549  A    between atoms: _1186  and  _1187
REMARK  550  A    between atoms: _1190  and  _1191
REMARK  551  A    between atoms: _1191  and  _1192
REMARK  552  A    between atoms: _1191  and  _1194
REMARK  553  A    between atoms: _1196  and  _1197
REMARK  554  A    between atoms: _1197  and  _1198
REMARK  555  A    between atoms: _1197  and  _1200
REMARK  556  A    between atoms: _1202  and  _1203
REMARK  557  A    between atoms: _1203  and  _1204
REMARK  558  A    between atoms: _1207  and  _1208
REMARK  559  A    between atoms: _1208  and  _1209
REMARK  560  A    between atoms: _1211  and  _1212
REMARK  561  A    between atoms: _1212  and  _1213
REMARK  562  A    between atoms: _1215  and  _1216
REMARK  563  A    between atoms: _1216  and  _1217
REMARK  564  A    between atoms: _1216  and  _1219
REMARK  565  A    between atoms: _1221  and  _1222
REMARK  566  A    between atoms: _1222  and  _1223
REMARK  567  A    between atoms: _1222  and  _1225
REMARK  568  A    between atoms: _1225  and  _1226
REMARK  569  A    between atoms: _1232  and  _1233
REMARK  570  A    between atoms: _1233  and  _1234
REMARK  571  A    between atoms: _1233  and  _1236
REMARK  572  A    between atoms: _1239  and  _1240
REMARK  573  A    between atoms: _1240  and  _1241
REMARK  574  A    between atoms: _1240  and  _1243
REMARK  575  A    between atoms: _1247  and  _1249
REMARK  576  A    between atoms: _1247  and  _1252
REMARK  577  A    between atoms: _1251  and  _1252
REMARK  578  A    between atoms: _1251  and  _1254
REMARK  579  A    between atoms: _1253  and  _1254
REMARK  580  A    between atoms: _1253  and  _1256
REMARK  581  A    between atoms: _1254  and  _1255
REMARK  582  A    between atoms: _1255  and  _1257
REMARK  583  A    between atoms: _1256  and  _1258
REMARK  584  A    between atoms: _1265  and  _1266
REMARK  585  A    between atoms: _1266  and  _1267
REMARK  586  A    between atoms: _1266  and  _1269
REMARK  587  A    between atoms: _1272  and  _1273
REMARK  588  A    between atoms: _1273  and  _1274
REMARK  589  A    between atoms: _1273  and  _1276
REMARK  590  A    between atoms: _1276  and  _1277
REMARK  591  A    between atoms: _1280  and  _1281
REMARK  592  A    between atoms: _1281  and  _1282
REMARK  593  A    between atoms: _1281  and  _1284
REMARK  594  A    between atoms: _1287  and  _1288
REMARK  595  A    between atoms: _1288  and  _1289
REMARK  596  A    between atoms: _1291  and  _1292
REMARK  597  A    between atoms: _1292  and  _1293
REMARK  598  A    between atoms: _1292  and  _1295
REMARK  599  A    between atoms: _1295  and  _1296
REMARK  600  A    between atoms: _1296  and  _1297
REMARK  601  A    between atoms: _1301  and  _1302
REMARK  602  A    between atoms: _1307  and  _1308
REMARK  603  A    between atoms: _1308  and  _1309
REMARK  604  A    between atoms: _1308  and  _1311
REMARK  605  A    between atoms: _1311  and  _1312
REMARK  606  A    between atoms: _1312  and  _1313
REMARK  607  A    between atoms: _1315  and  _1316
REMARK  608  A    between atoms: _1316  and  _1317
REMARK  609  A    between atoms: _1319  and  _1320
REMARK  610  A    between atoms: _1320  and  _1321
REMARK  611  A    between atoms: _1320  and  _1323
REMARK  612  A    between atoms: _1323  and  _1324
REMARK  613  A    between atoms: _1324  and  _1325
REMARK  614  A    between atoms: _1325  and  _1326
REMARK  615  A    between atoms: _1330  and  _1331
REMARK  616  A    between atoms: _1331  and  _1332
REMARK  617  A    between atoms: _1334  and  _1335
REMARK  618  A    between atoms: _1335  and  _1336
REMARK  619  A    between atoms: _1335  and  _1338
REMARK  620  A    between atoms: _1341  and  _1342
REMARK  621  A    between atoms: _1342  and  _1343
REMARK  622  A    between atoms: _1342  and  _1345
REMARK  623  A    between atoms: _1345  and  _1346
REMARK  624  A    between atoms: _1346  and  _1347
REMARK  625  A    between atoms: _1347  and  _1348
REMARK  626  A    between atoms: _1350  and  _1351
REMARK  627  A    between atoms: _1351  and  _1352
REMARK  628  A    between atoms: _1351  and  _1354
REMARK  629  A    between atoms: _1357  and  _1358
REMARK  630  A    between atoms: _1358  and  _1359
REMARK  631  A    between atoms: _1358  and  _1361
REMARK  632  A    between atoms: _1361  and  _1362
REMARK  633  A    between atoms: _1365  and  _1366
REMARK  634  A    between atoms: _1366  and  _1367
REMARK  635  A    between atoms: _1366  and  _1369
REMARK  636  A    between atoms: _1369  and  _1370
REMARK  637  A    between atoms: _1373  and  _1374
REMARK  638  A    between atoms: _1374  and  _1375
REMARK  639  A    between atoms: _1374  and  _1377
REMARK  640  A    between atoms: _1377  and  _1378
REMARK  641  A    between atoms: _1383  and  _1384
REMARK  642  A    between atoms: _1384  and  _1385
REMARK  643  A    between atoms: _1384  and  _1387
REMARK  644  A    between atoms: _1387  and  _1388
REMARK  645  A    between atoms: _1391  and  _1392
REMARK  646  A    between atoms: _1392  and  _1393
REMARK  647  A    between atoms: _1392  and  _1395
REMARK  648  A    between atoms: _1395  and  _1396
REMARK  649  A    between atoms: _1396  and  _1397
REMARK  650  A    between atoms: _1397  and  _1398
REMARK  651  A    between atoms: _1400  and  _1401
REMARK  652  A    between atoms: _1401  and  _1402
REMARK  653  A    between atoms: _1401  and  _1404
REMARK  654  A    between atoms: _1404  and  _1405
REMARK  655  A    between atoms: _1405  and  _1406
REMARK  656  A    between atoms: _1409  and  _1410
REMARK  657  A    between atoms: _1410  and  _1411
REMARK  658  A    between atoms: _1410  and  _1413
REMARK  659  A    between atoms: _1413  and  _1414
REMARK  660  A    between atoms: _1417  and  _1418
REMARK  661  A    between atoms: _1418  and  _1419
REMARK  662  A    between atoms: _1418  and  _1421
REMARK  663  A    between atoms: _1421  and  _1422
REMARK  664  A    between atoms: _1422  and  _1423
REMARK  665  A    between atoms: _1426  and  _1427
REMARK  666  A    between atoms: _1427  and  _1428
REMARK  667  A    between atoms: _1427  and  _1430
REMARK  668  A    between atoms: _1433  and  _1434
REMARK  669  A    between atoms: _1434  and  _1435
REMARK  670  A    between atoms: _1434  and  _1437
REMARK  671  A    between atoms: _1437  and  _1438
REMARK  672  A    between atoms: _1438  and  _1439
REMARK  673  A    between atoms: _1442  and  _1443
REMARK  674  A    between atoms: _1443  and  _1444
REMARK  675  A    between atoms: _1443  and  _1446
REMARK  676  A    between atoms: _1446  and  _1447
REMARK  677  A    between atoms: _1454  and  _1455
REMARK  678  A    between atoms: _1455  and  _1456
REMARK  679  A    between atoms: _1455  and  _1458
REMARK  680  A    between atoms: _1458  and  _1459
REMARK  681  A    between atoms: _1462  and  _1463
REMARK  682  A    between atoms: _1463  and  _1464
REMARK  683  A    between atoms: _1463  and  _1466
REMARK  684  A    between atoms: _1466  and  _1467
REMARK  685  A    between atoms: _1467  and  _1468
REMARK  686  A    between atoms: _1471  and  _1472
REMARK  687  A    between atoms: _1472  and  _1473
REMARK  688  A    between atoms: _1472  and  _1475
REMARK  689  A    between atoms: _1475  and  _1476
REMARK  690  A    between atoms: _1476  and  _1477
REMARK  691  A    between atoms: _1480  and  _1481
REMARK  692  A    between atoms: _1481  and  _1482
REMARK  693  A    between atoms: _1481  and  _1484
REMARK  694  A    between atoms: _1484  and  _1485
REMARK  695  A    between atoms: _1485  and  _1486
REMARK  696  A    between atoms: _1486  and  _1487
REMARK  697  A    between atoms: _1491  and  _1492
REMARK  698  A    between atoms: _1492  and  _1493
REMARK  699  A    between atoms: _1492  and  _1495
REMARK  700  A    between atoms: _1495  and  _1496
REMARK  701  A    between atoms: _1496  and  _1497
REMARK  702  A    between atoms: _1497  and  _1498
REMARK  703  A    between atoms: _1502  and  _1503
REMARK  704  A    between atoms: _1503  and  _1504
REMARK  705  A    between atoms: _1503  and  _1506
REMARK  706  A    between atoms: _1506  and  _1507
REMARK  707  A    between atoms: _1510  and  _1511
REMARK  708  A    between atoms: _1511  and  _1512
REMARK  709  A    between atoms: _1511  and  _1514
REMARK  710  A    between atoms: _1514  and  _1515
REMARK  711  A    between atoms: _1515  and  _1516
REMARK  712  A    between atoms: _1516  and  _1517
REMARK  713  A    between atoms: _1519  and  _1520
REMARK  714  A    between atoms: _1520  and  _1521
REMARK  715  A    between atoms: _1520  and  _1523
REMARK  716  A    between atoms: _1523  and  _1524
REMARK  717  A    between atoms: _1524  and  _1525
REMARK  718  A    between atoms: _1528  and  _1529
REMARK  719  A    between atoms: _1529  and  _1530
REMARK  720  A    between atoms: _1529  and  _1532
REMARK  721  A    between atoms: _1532  and  _1533
REMARK  722  A    between atoms: _1536  and  _1537
REMARK  723  A    between atoms: _1537  and  _1538
REMARK  724  A    between atoms: _1537  and  _1540
REMARK  725  A    between atoms: _1543  and  _1544
REMARK  726  A    between atoms: _1544  and  _1545
REMARK  727  A    between atoms: _1544  and  _1547
REMARK  728  A    between atoms: _1547  and  _1548
REMARK  729  A    between atoms: _1548  and  _1549
REMARK  730  A    between atoms: _1549  and  _1550
REMARK  731  A    between atoms: _1552  and  _1553
REMARK  732  A    between atoms: _1553  and  _1554
REMARK  733  A    between atoms: _1553  and  _1556
REMARK  734  A    between atoms: _1556  and  _1557
REMARK  735  A    between atoms: _1557  and  _1558
REMARK  736  A    between atoms: _1558  and  _1559
REMARK  737  A    between atoms: _1561  and  _1562
REMARK  738  A    between atoms: _1562  and  _1563
REMARK  739  A    between atoms: _1562  and  _1565
REMARK  740  A    between atoms: _1565  and  _1566
REMARK  741  A    between atoms: _1571  and  _1572
REMARK  742  A    between atoms: _1572  and  _1573
REMARK  743  A    between atoms: _1572  and  _1575
REMARK  744  A    between atoms: _1577  and  _1578
REMARK  745  A    between atoms: _1578  and  _1579
REMARK  746  A    between atoms: _1578  and  _1581
REMARK  747  A    between atoms: _1581  and  _1582
REMARK  748  A    between atoms: _1582  and  _1583
REMARK  749  A    between atoms: _1586  and  _1587
REMARK  750  A    between atoms: _1587  and  _1588
REMARK  751  A    between atoms: _1587  and  _1590
REMARK  752  A    between atoms: _1590  and  _1591
REMARK  753  A    between atoms: _1597  and  _1598
REMARK  754  A    between atoms: _1598  and  _1599
REMARK  755  A    between atoms: _1598  and  _1601
REMARK  756  A    between atoms: _1601  and  _1602
REMARK  757  A    between atoms: _1605  and  _1606
REMARK  758  A    between atoms: _1606  and  _1607
REMARK  759  A    between atoms: _1609  and  _1610
REMARK  760  A    between atoms: _1610  and  _1611
REMARK  761  A    between atoms: _1610  and  _1613
REMARK  762  A    between atoms: _1613  and  _1614
REMARK  763  A    between atoms: _1622  and  _1623
REMARK  764  A    between atoms: _1628  and  _1629
REMARK  765  A    between atoms: _1629  and  _1630
REMARK  766  A    between atoms: _1629  and  _1632
REMARK  767  A    between atoms: _1632  and  _1633
REMARK  768  A    between atoms: _1636  and  _1637
REMARK  769  A    between atoms: _1637  and  _1638
REMARK  770  A    between atoms: _1637  and  _1640
REMARK  771  A    between atoms: _1643  and  _1644
REMARK  772  A    between atoms: _1644  and  _1645
REMARK  773  A    between atoms: _1644  and  _1647
REMARK  774  A    between atoms: _1647  and  _1648
REMARK  775  A    between atoms: _1651  and  _1652
REMARK  776  A    between atoms: _1652  and  _1653
REMARK  777  A    between atoms: _1652  and  _1655
REMARK  778  A    between atoms: _1655  and  _1656
REMARK  779  A    between atoms: _1662  and  _1663
REMARK  780  A    between atoms: _1663  and  _1664
REMARK  781  A    between atoms: _1663  and  _1666
REMARK  782  A    between atoms: _1669  and  _1670
REMARK  783  A    between atoms: _1670  and  _1671
REMARK  784  A    between atoms: _1670  and  _1673
REMARK  785  A    between atoms: _1673  and  _1674
REMARK  786  A    between atoms: _1674  and  _1675
REMARK                            x       y       z     vdW  Elec       q    Type
REMARK                         _______ _______ _______ _____ _____    ______ ____
ROOT
ATOM      1  C   UNL     1       8.719  10.764  28.817  0.00  0.00    +0.279 C 
ATOM      2  O   UNL     1       8.205   9.713  28.417  0.00  0.00    -0.279 OA
ENDROOT
TORSDOF 0
REMARK  Name = /Users/mlugowska/PhD/ML_residence_time_prediction/protein_files/5J64_protein.pdb
REMARK  786 active torsions:
REMARK  status: ('A' for Active; 'I' for Inactive)
REMARK    1  A    between atoms: _2  and  _3
REMARK    2  A    between atoms: _2  and  _5
REMARK    3  A    between atoms: _5  and  _6
REMARK    4  A    between atoms: _6  and  _7
REMARK    5  A    between atoms: _10  and  _11
REMARK    6  A    between atoms: _11  and  _12
REMARK    7  A    between atoms: _11  and  _14
REMARK    8  A    between atoms: _17  and  _18
REMARK    9  A    between atoms: _18  and  _19
REMARK   10  A    between atoms: _18  and  _21
REMARK   11  A    between atoms: _21  and  _22
REMARK   12  A    between atoms: _22  and  _23
REMARK   13  A    between atoms: _26  and  _27
REMARK   14  A    between atoms: _27  and  _28
REMARK   15  A    between atoms: _27  and  _30
REMARK   16  A    between atoms: _33  and  _34
REMARK   17  A    between atoms: _34  and  _35
REMARK   18  A    between atoms: _34  and  _37
REMARK   19  A    between atoms: _37  and  _38
REMARK   20  A    between atoms: _44  and  _45
REMARK   21  A    between atoms: _45  and  _46
REMARK   22  A    between atoms: _49  and  _50
REMARK   23  A    between atoms: _50  and  _51
REMARK   24  A    between atoms: _50  and  _53
REMARK   25  A    between atoms: _53  and  _54
REMARK   26  A    between atoms: _60  and  _61
REMARK   27  A    between atoms: _61  and  _62
REMARK   28  A    between atoms: _61  and  _64
REMARK   29  A    between atoms: _64  and  _65
REMARK   30  A    between atoms: _65  and  _66
REMARK   31  A    between atoms: _69  and  _70
REMARK   32  A    between atoms: _70  and  _71
REMARK   33  A    between atoms: _74  and  _75
REMARK   34  A    between atoms: _75  and  _76
REMARK   35  A    between atoms: _75  and  _78
REMARK   36  A    between atoms: _78  and  _79
REMARK   37  A    between atoms: _79  and  _80
REMARK   38  A    between atoms: _83  and  _84
REMARK   39  A    between atoms: _84  and  _85
REMARK   40  A    between atoms: _84  and  _87
REMARK   41  A    between atoms: _87  and  _88
REMARK   42  A    between atoms: _91  and  _92
REMARK   43  A    between atoms: _92  and  _93
REMARK   44  A    between atoms: _96  and  _97
REMARK   45  A    between atoms: _97  and  _98
REMARK   46  A    between atoms: _97  and  _100
REMARK   47  A    between atoms: _100  and  _101
REMARK   48  A    between atoms: _101  and  _102
REMARK   49  A    between atoms: _105  and  _106
REMARK   50  A    between atoms: _106  and  _107
REMARK   51  A    between atoms: _106  and  _109
REMARK   52  A    between atoms: _109  and  _110
REMARK   53  A    between atoms: _113  and  _114
REMARK   54  A    between atoms: _114  and  _115
REMARK   55  A    between atoms: _114  and  _117
REMARK   56  A    between atoms: _117  and  _118
REMARK   57  A    between atoms: _118  and  _119
REMARK   58  A    between atoms: _121  and  _122
REMARK   59  A    between atoms: _122  and  _123
REMARK   60  A    between atoms: _122  and  _125
REMARK   61  A    between atoms: _127  and  _128
REMARK   62  A    between atoms: _128  and  _129
REMARK   63  A    between atoms: _128  and  _131
REMARK   64  A    between atoms: _131  and  _132
REMARK   65  A    between atoms: _135  and  _136
REMARK   66  A    between atoms: _136  and  _137
REMARK   67  A    between atoms: _136  and  _139
REMARK   68  A    between atoms: _139  and  _140
REMARK   69  A    between atoms: _143  and  _144
REMARK   70  A    between atoms: _144  and  _145
REMARK   71  A    between atoms: _144  and  _147
REMARK   72  A    between atoms: _147  and  _148
REMARK   73  A    between atoms: _151  and  _152
REMARK   74  A    between atoms: _152  and  _153
REMARK   75  A    between atoms: _152  and  _155
REMARK   76  A    between atoms: _155  and  _156
REMARK   77  A    between atoms: _159  and  _160
REMARK   78  A    between atoms: _160  and  _161
REMARK   79  A    between atoms: _160  and  _163
REMARK   80  A    between atoms: _166  and  _167
REMARK   81  A    between atoms: _167  and  _170
REMARK   82  A    between atoms: _170  and  _171
REMARK   83  A    between atoms: _181  and  _183
REMARK   84  A    between atoms: _183  and  _184
REMARK   85  A    between atoms: _189  and  _194
REMARK   86  A    between atoms: _192  and  _195
REMARK   87  A    between atoms: _193  and  _194
REMARK   88  A    between atoms: _195  and  _196
REMARK   89  A    between atoms: _201  and  _202
REMARK   90  A    between atoms: _202  and  _203
REMARK   91  A    between atoms: _202  and  _205
REMARK   92  A    between atoms: _207  and  _208
REMARK   93  A    between atoms: _208  and  _209
REMARK   94  A    between atoms: _208  and  _211
REMARK   95  A    between atoms: _211  and  _212
REMARK   96  A    between atoms: _215  and  _216
REMARK   97  A    between atoms: _216  and  _217
REMARK   98  A    between atoms: _216  and  _219
REMARK   99  A    between atoms: _219  and  _220
REMARK  100  A    between atoms: _220  and  _221
REMARK  101  A    between atoms: _221  and  _222
REMARK  102  A    between atoms: _224  and  _225
REMARK  103  A    between atoms: _225  and  _226
REMARK  104  A    between atoms: _225  and  _228
REMARK  105  A    between atoms: _228  and  _229
REMARK  106  A    between atoms: _229  and  _230
REMARK  107  A    between atoms: _233  and  _234
REMARK  108  A    between atoms: _234  and  _235
REMARK  109  A    between atoms: _234  and  _237
REMARK  110  A    between atoms: _237  and  _238
REMARK  111  A    between atoms: _241  and  _242
REMARK  112  A    between atoms: _242  and  _243
REMARK  113  A    between atoms: _242  and  _245
REMARK  114  A    between atoms: _245  and  _246
REMARK  115  A    between atoms: _252  and  _253
REMARK  116  A    between atoms: _253  and  _254
REMARK  117  A    between atoms: _253  and  _256
REMARK  118  A    between atoms: _256  and  _257
REMARK  119  A    between atoms: _260  and  _261
REMARK  120  A    between atoms: _261  and  _262
REMARK  121  A    between atoms: _261  and  _264
REMARK  122  A    between atoms: _264  and  _265
REMARK  123  A    between atoms: _265  and  _266
REMARK  124  A    between atoms: _266  and  _267
REMARK  125  A    between atoms: _271  and  _272
REMARK  126  A    between atoms: _272  and  _273
REMARK  127  A    between atoms: _272  and  _275
REMARK  128  A    between atoms: _275  and  _276
REMARK  129  A    between atoms: _276  and  _277
REMARK  130  A    between atoms: _280  and  _281
REMARK  131  A    between atoms: _281  and  _282
REMARK  132  A    between atoms: _281  and  _284
REMARK  133  A    between atoms: _284  and  _285
REMARK  134  A    between atoms: _288  and  _289
REMARK  135  A    between atoms: _289  and  _292
REMARK  136  A    between atoms: _292  and  _293
REMARK  137  A    between atoms: _309  and  _310
REMARK  138  A    between atoms: _309  and  _312
REMARK  139  A    between atoms: _312  and  _313
REMARK  140  A    between atoms: _316  and  _317
REMARK  141  A    between atoms: _317  and  _318
REMARK  142  A    between atoms: _317  and  _320
REMARK  143  A    between atoms: _322  and  _323
REMARK  144  A    between atoms: _323  and  _324
REMARK  145  A    between atoms: _323  and  _326
REMARK  146  A    between atoms: _328  and  _329
REMARK  147  A    between atoms: _329  and  _330
REMARK  148  A    between atoms: _329  and  _332
REMARK  149  A    between atoms: _332  and  _333
REMARK  150  A    between atoms: _336  and  _337
REMARK  151  A    between atoms: _337  and  _338
REMARK  152  A    between atoms: _341  and  _342
REMARK  153  A    between atoms: _342  and  _343
REMARK  154  A    between atoms: _342  and  _345
REMARK  155  A    between atoms: _345  and  _346
REMARK  156  A    between atoms: _349  and  _350
REMARK  157  A    between atoms: _350  and  _351
REMARK  158  A    between atoms: _350  and  _353
REMARK  159  A    between atoms: _353  and  _354
REMARK  160  A    between atoms: _357  and  _358
REMARK  161  A    between atoms: _358  and  _359
REMARK  162  A    between atoms: _358  and  _361
REMARK  163  A    between atoms: _361  and  _362
REMARK  164  A    between atoms: _362  and  _363
REMARK  165  A    between atoms: _363  and  _364
REMARK  166  A    between atoms: _366  and  _367
REMARK  167  A    between atoms: _367  and  _368
REMARK  168  A    between atoms: _367  and  _370
REMARK  169  A    between atoms: _370  and  _371
REMARK  170  A    between atoms: _374  and  _375
REMARK  171  A    between atoms: _375  and  _376
REMARK  172  A    between atoms: _375  and  _378
REMARK  173  A    between atoms: _378  and  _379
REMARK  174  A    between atoms: _379  and  _380
REMARK  175  A    between atoms: _380  and  _381
REMARK  176  A    between atoms: _385  and  _386
REMARK  177  A    between atoms: _386  and  _387
REMARK  178  A    between atoms: _386  and  _389
REMARK  179  A    between atoms: _389  and  _390
REMARK  180  A    between atoms: _397  and  _398
REMARK  181  A    between atoms: _398  and  _399
REMARK  182  A    between atoms: _398  and  _401
REMARK  183  A    between atoms: _401  and  _402
REMARK  184  A    between atoms: _402  and  _403
REMARK  185  A    between atoms: _406  and  _407
REMARK  186  A    between atoms: _407  and  _408
REMARK  187  A    between atoms: _407  and  _410
REMARK  188  A    between atoms: _412  and  _413
REMARK  189  A    between atoms: _413  and  _414
REMARK  190  A    between atoms: _413  and  _416
REMARK  191  A    between atoms: _416  and  _417
REMARK  192  A    between atoms: _420  and  _421
REMARK  193  A    between atoms: _421  and  _422
REMARK  194  A    between atoms: _421  and  _424
REMARK  195  A    between atoms: _427  and  _428
REMARK  196  A    between atoms: _428  and  _429
REMARK  197  A    between atoms: _428  and  _431
REMARK  198  A    between atoms: _431  and  _432
REMARK  199  A    between atoms: _436  and  _437
REMARK  200  A    between atoms: _442  and  _443
REMARK  201  A    between atoms: _443  and  _444
REMARK  202  A    between atoms: _443  and  _446
REMARK  203  A    between atoms: _448  and  _449
REMARK  204  A    between atoms: _449  and  _450
REMARK  205  A    between atoms: _449  and  _452
REMARK  206  A    between atoms: _452  and  _453
REMARK  207  A    between atoms: _453  and  _454
REMARK  208  A    between atoms: _454  and  _455
REMARK  209  A    between atoms: _457  and  _458
REMARK  210  A    between atoms: _458  and  _459
REMARK  211  A    between atoms: _458  and  _461
REMARK  212  A    between atoms: _461  and  _462
REMARK  213  A    between atoms: _465  and  _466
REMARK  214  A    between atoms: _466  and  _467
REMARK  215  A    between atoms: _466  and  _469
REMARK  216  A    between atoms: _469  and  _470
REMARK  217  A    between atoms: _473  and  _474
REMARK  218  A    between atoms: _474  and  _475
REMARK  219  A    between atoms: _474  and  _477
REMARK  220  A    between atoms: _479  and  _480
REMARK  221  A    between atoms: _480  and  _481
REMARK  222  A    between atoms: _483  and  _484
REMARK  223  A    between atoms: _484  and  _485
REMARK  224  A    between atoms: _484  and  _487
REMARK  225  A    between atoms: _487  and  _488
REMARK  226  A    between atoms: _488  and  _489
REMARK  227  A    between atoms: _489  and  _490
REMARK  228  A    between atoms: _492  and  _493
REMARK  229  A    between atoms: _493  and  _494
REMARK  230  A    between atoms: _493  and  _496
REMARK  231  A    between atoms: _496  and  _497
REMARK  232  A    between atoms: _497  and  _498
REMARK  233  A    between atoms: _501  and  _502
REMARK  234  A    between atoms: _502  and  _503
REMARK  235  A    between atoms: _502  and  _505
REMARK  236  A    between atoms: _505  and  _506
REMARK  237  A    between atoms: _509  and  _510
REMARK  238  A    between atoms: _510  and  _511
REMARK  239  A    between atoms: _510  and  _513
REMARK  240  A    between atoms: _513  and  _514
REMARK  241  A    between atoms: _519  and  _520
REMARK  242  A    between atoms: _520  and  _521
REMARK  243  A    between atoms: _520  and  _523
REMARK  244  A    between atoms: _523  and  _524
REMARK  245  A    between atoms: _527  and  _528
REMARK  246  A    between atoms: _528  and  _529
REMARK  247  A    between atoms: _528  and  _531
REMARK  248  A    between atoms: _531  and  _532
REMARK  249  A    between atoms: _535  and  _536
REMARK  250  A    between atoms: _536  and  _537
REMARK  251  A    between atoms: _536  and  _539
REMARK  252  A    between atoms: _539  and  _540
REMARK  253  A    between atoms: _543  and  _544
REMARK  254  A    between atoms: _544  and  _545
REMARK  255  A    between atoms: _544  and  _547
REMARK  256  A    between atoms: _547  and  _548
REMARK  257  A    between atoms: _552  and  _553
REMARK  258  A    between atoms: _558  and  _559
REMARK  259  A    between atoms: _559  and  _560
REMARK  260  A    between atoms: _559  and  _562
REMARK  261  A    between atoms: _562  and  _563
REMARK  262  A    between atoms: _566  and  _567
REMARK  263  A    between atoms: _567  and  _568
REMARK  264  A    between atoms: _567  and  _570
REMARK  265  A    between atoms: _570  and  _571
REMARK  266  A    between atoms: _571  and  _572
REMARK  267  A    between atoms: _572  and  _573
REMARK  268  A    between atoms: _575  and  _576
REMARK  269  A    between atoms: _576  and  _577
REMARK  270  A    between atoms: _576  and  _579
REMARK  271  A    between atoms: _579  and  _580
REMARK  272  A    between atoms: _580  and  _581
REMARK  273  A    between atoms: _584  and  _585
REMARK  274  A    between atoms: _585  and  _586
REMARK  275  A    between atoms: _585  and  _588
REMARK  276  A    between atoms: _588  and  _589
REMARK  277  A    between atoms: _592  and  _593
REMARK  278  A    between atoms: _593  and  _594
REMARK  279  A    between atoms: _593  and  _596
REMARK  280  A    between atoms: _596  and  _597
REMARK  281  A    between atoms: _597  and  _598
REMARK  282  A    between atoms: _598  and  _599
REMARK  283  A    between atoms: _603  and  _604
REMARK  284  A    between atoms: _604  and  _605
REMARK  285  A    between atoms: _604  and  _607
REMARK  286  A    between atoms: _610  and  _611
REMARK  287  A    between atoms: _611  and  _612
REMARK  288  A    between atoms: _611  and  _614
REMARK  289  A    between atoms: _614  and  _615
REMARK  290  A    between atoms: _618  and  _619
REMARK  291  A    between atoms: _619  and  _620
REMARK  292  A    between atoms: _619  and  _622
REMARK  293  A    between atoms: _625  and  _626
REMARK  294  A    between atoms: _626  and  _627
REMARK  295  A    between atoms: _626  and  _629
REMARK  296  A    between atoms: _629  and  _630
REMARK  297  A    between atoms: _633  and  _634
REMARK  298  A    between atoms: _634  and  _635
REMARK  299  A    between atoms: _634  and  _637
REMARK  300  A    between atoms: _640  and  _641
REMARK  301  A    between atoms: _641  and  _642
REMARK  302  A    between atoms: _641  and  _644
REMARK  303  A    between atoms: _644  and  _645
REMARK  304  A    between atoms: _648  and  _649
REMARK  305  A    between atoms: _649  and  _650
REMARK  306  A    between atoms: _649  and  _652
REMARK  307  A    between atoms: _655  and  _656
REMARK  308  A    between atoms: _656  and  _657
REMARK  309  A    between atoms: _659  and  _660
REMARK  310  A    between atoms: _660  and  _661
REMARK  311  A    between atoms: _660  and  _663
REMARK  312  A    between atoms: _663  and  _664
REMARK  313  A    between atoms: _667  and  _668
REMARK  314  A    between atoms: _668  and  _669
REMARK  315  A    between atoms: _671  and  _672
REMARK  316  A    between atoms: _672  and  _673
REMARK  317  A    between atoms: _672  and  _675
REMARK  318  A    between atoms: _675  and  _676
REMARK  319  A    between atoms: _676  and  _677
REMARK  320  A    between atoms: _679  and  _680
REMARK  321  A    between atoms: _680  and  _681
REMARK  322  A    between atoms: _680  and  _683
REMARK  323  A    between atoms: _686  and  _687
REMARK  324  A    between atoms: _687  and  _688
REMARK  325  A    between atoms: _687  and  _690
REMARK  326  A    between atoms: _690  and  _691
REMARK  327  A    between atoms: _691  and  _692
REMARK  328  A    between atoms: _692  and  _693
REMARK  329  A    between atoms: _695  and  _696
REMARK  330  A    between atoms: _696  and  _697
REMARK  331  A    between atoms: _700  and  _701
REMARK  332  A    between atoms: _701  and  _702
REMARK  333  A    between atoms: _701  and  _704
REMARK  334  A    between atoms: _704  and  _705
REMARK  335  A    between atoms: _708  and  _709
REMARK  336  A    between atoms: _709  and  _710
REMARK  337  A    between atoms: _709  and  _712
REMARK  338  A    between atoms: _712  and  _713
REMARK  339  A    between atoms: _716  and  _717
REMARK  340  A    between atoms: _717  and  _720
REMARK  341  A    between atoms: _720  and  _721
REMARK  342  A    between atoms: _733  and  _734
REMARK  343  A    between atoms: _733  and  _735
REMARK  344  A    between atoms: _741  and  _744
REMARK  345  A    between atoms: _744  and  _745
REMARK  346  A    between atoms: _758  and  _759
REMARK  347  A    between atoms: _758  and  _761
REMARK  348  A    between atoms: _759  and  _760
REMARK  349  A    between atoms: _765  and  _766
REMARK  350  A    between atoms: _768  and  _769
REMARK  351  A    between atoms: _769  and  _770
REMARK  352  A    between atoms: _769  and  _772
REMARK  353  A    between atoms: _775  and  _776
REMARK  354  A    between atoms: _776  and  _777
REMARK  355  A    between atoms: _776  and  _779
REMARK  356  A    between atoms: _779  and  _780
REMARK  357  A    between atoms: _783  and  _784
REMARK  358  A    between atoms: _784  and  _785
REMARK  359  A    between atoms: _788  and  _789
REMARK  360  A    between atoms: _789  and  _790
REMARK  361  A    between atoms: _789  and  _792
REMARK  362  A    between atoms: _792  and  _793
REMARK  363  A    between atoms: _793  and  _794
REMARK  364  A    between atoms: _794  and  _795
REMARK  365  A    between atoms: _797  and  _798
REMARK  366  A    between atoms: _798  and  _799
REMARK  367  A    between atoms: _798  and  _801
REMARK  368  A    between atoms: _803  and  _804
REMARK  369  A    between atoms: _804  and  _805
REMARK  370  A    between atoms: _807  and  _808
REMARK  371  A    between atoms: _808  and  _809
REMARK  372  A    between atoms: _808  and  _811
REMARK  373  A    between atoms: _814  and  _815
REMARK  374  A    between atoms: _815  and  _816
REMARK  375  A    between atoms: _815  and  _818
REMARK  376  A    between atoms: _818  and  _819
REMARK  377  A    between atoms: _819  and  _820
REMARK  378  A    between atoms: _820  and  _821
REMARK  379  A    between atoms: _823  and  _824
REMARK  380  A    between atoms: _824  and  _825
REMARK  381  A    between atoms: _828  and  _829
REMARK  382  A    between atoms: _829  and  _830
REMARK  383  A    between atoms: _829  and  _832
REMARK  384  A    between atoms: _832  and  _833
REMARK  385  A    between atoms: _839  and  _840
REMARK  386  A    between atoms: _840  and  _841
REMARK  387  A    between atoms: _840  and  _843
REMARK  388  A    between atoms: _843  and  _844
REMARK  389  A    between atoms: _844  and  _845
REMARK  390  A    between atoms: _847  and  _848
REMARK  391  A    between atoms: _848  and  _849
REMARK  392  A    between atoms: _848  and  _851
REMARK  393  A    between atoms: _851  and  _852
REMARK  394  A    between atoms: _852  and  _853
REMARK  395  A    between atoms: _856  and  _857
REMARK  396  A    between atoms: _857  and  _858
REMARK  397  A    between atoms: _861  and  _862
REMARK  398  A    between atoms: _862  and  _863
REMARK  399  A    between atoms: _862  and  _865
REMARK  400  A    between atoms: _865  and  _866
REMARK  401  A    between atoms: _869  and  _870
REMARK  402  A    between atoms: _870  and  _871
REMARK  403  A    between atoms: _870  and  _873
REMARK  404  A    between atoms: _873  and  _874
REMARK  405  A    between atoms: _874  and  _875
REMARK  406  A    between atoms: _878  and  _879
REMARK  407  A    between atoms: _879  and  _880
REMARK  408  A    between atoms: _883  and  _884
REMARK  409  A    between atoms: _884  and  _885
REMARK  410  A    between atoms: _887  and  _888
REMARK  411  A    between atoms: _888  and  _889
REMARK  412  A    between atoms: _892  and  _893
REMARK  413  A    between atoms: _893  and  _894
REMARK  414  A    between atoms: _893  and  _896
REMARK  415  A    between atoms: _896  and  _897
REMARK  416  A    between atoms: _900  and  _901
REMARK  417  A    between atoms: _901  and  _902
REMARK  418  A    between atoms: _901  and  _904
REMARK  419  A    between atoms: _904  and  _905
REMARK  420  A    between atoms: _908  and  _909
REMARK  421  A    between atoms: _909  and  _910
REMARK  422  A    between atoms: _909  and  _912
REMARK  423  A    between atoms: _914  and  _915
REMARK  424  A    between atoms: _915  and  _916
REMARK  425  A    between atoms: _915  and  _918
REMARK  426  A    between atoms: _918  and  _919
REMARK  427  A    between atoms: _919  and  _920
REMARK  428  A    between atoms: _922  and  _923
REMARK  429  A    between atoms: _923  and  _924
REMARK  430  A    between atoms: _923  and  _926
REMARK  431  A    between atoms: _926  and  _927
REMARK  432  A    between atoms: _930  and  _931
REMARK  433  A    between atoms: _931  and  _932
REMARK  434  A    between atoms: _934  and  _935
REMARK  435  A    between atoms: _935  and  _936
REMARK  436  A    between atoms: _935  and  _938
REMARK  437  A    between atoms: _938  and  _939
REMARK  438  A    between atoms: _939  and  _940
REMARK  439  A    between atoms: _943  and  _944
REMARK  440  A    between atoms: _944  and  _945
REMARK  441  A    between atoms: _944  and  _947
REMARK  442  A    between atoms: _947  and  _948
REMARK  443  A    between atoms: _954  and  _955
REMARK  444  A    between atoms: _955  and  _956
REMARK  445  A    between atoms: _958  and  _959
REMARK  446  A    between atoms: _959  and  _960
REMARK  447  A    between atoms: _959  and  _962
REMARK  448  A    between atoms: _965  and  _966
REMARK  449  A    between atoms: _966  and  _967
REMARK  450  A    between atoms: _969  and  _970
REMARK  451  A    between atoms: _970  and  _971
REMARK  452  A    between atoms: _970  and  _973
REMARK  453  A    between atoms: _973  and  _974
REMARK  454  A    between atoms: _980  and  _981
REMARK  455  A    between atoms: _981  and  _982
REMARK  456  A    between atoms: _981  and  _984
REMARK  457  A    between atoms: _984  and  _985
REMARK  458  A    between atoms: _992  and  _993
REMARK  459  A    between atoms: _993  and  _994
REMARK  460  A    between atoms: _993  and  _996
REMARK  461  A    between atoms: _998  and  _999
REMARK  462  A    between atoms: _999  and  _1000
REMARK  463  A    between atoms: _1003  and  _1004
REMARK  464  A    between atoms: _1004  and  _1005
REMARK  465  A    between atoms: _1004  and  _1007
REMARK  466  A    between atoms: _1007  and  _1008
REMARK  467  A    between atoms: _1015  and  _1016
REMARK  468  A    between atoms: _1016  and  _1017
REMARK  469  A    between atoms: _1016  and  _1019
REMARK  470  A    between atoms: _1019  and  _1020
REMARK  471  A    between atoms: _1023  and  _1024
REMARK  472  A    between atoms: _1024  and  _1025
REMARK  473  A    between atoms: _1024  and  _1027
REMARK  474  A    between atoms: _1030  and  _1031
REMARK  475  A    between atoms: _1031  and  _1032
REMARK  476  A    between atoms: _1035  and  _1036
REMARK  477  A    between atoms: _1036  and  _1037
REMARK  478  A    between atoms: _1036  and  _1039
REMARK  479  A    between atoms: _1039  and  _1040
REMARK  480  A    between atoms: _1040  and  _1041
REMARK  481  A    between atoms: _1044  and  _1045
REMARK  482  A    between atoms: _1045  and  _1046
REMARK  483  A    between atoms: _1045  and  _1048
REMARK  484  A    between atoms: _1048  and  _1049
REMARK  485  A    between atoms: _1049  and  _1050
REMARK  486  A    between atoms: _1050  and  _1051
REMARK  487  A    between atoms: _1053  and  _1054
REMARK  488  A    between atoms: _1054  and  _1055
REMARK  489  A    between atoms: _1054  and  _1057
REMARK  490  A    between atoms: _1060  and  _1061
REMARK  491  A    between atoms: _1061  and  _1062
REMARK  492  A    between atoms: _1061  and  _1064
REMARK  493  A    between atoms: _1067  and  _1068
REMARK  494  A    between atoms: _1068  and  _1069
REMARK  495  A    between atoms: _1068  and  _1071
REMARK  496  A    between atoms: _1074  and  _1075
REMARK  497  A    between atoms: _1075  and  _1076
REMARK  498  A    between atoms: _1075  and  _1078
REMARK  499  A    between atoms: _1078  and  _1079
REMARK  500  A    between atoms: _1082  and  _1083
REMARK  501  A    between atoms: _1083  and  _1084
REMARK  502  A    between atoms: _1083  and  _1086
REMARK  503  A    between atoms: _1089  and  _1090
REMARK  504  A    between atoms: _1090  and  _1091
REMARK  505  A    between atoms: _1090  and  _1093
REMARK  506  A    between atoms: _1093  and  _1094
REMARK  507  A    between atoms: _1094  and  _1095
REMARK  508  A    between atoms: _1095  and  _1096
REMARK  509  A    between atoms: _1098  and  _1099
REMARK  510  A    between atoms: _1099  and  _1100
REMARK  511  A    between atoms: _1099  and  _1102
REMARK  512  A    between atoms: _1102  and  _1103
REMARK  513  A    between atoms: _1108  and  _1109
REMARK  514  A    between atoms: _1109  and  _1110
REMARK  515  A    between atoms: _1109  and  _1112
REMARK  516  A    between atoms: _1112  and  _1113
REMARK  517  A    between atoms: _1116  and  _1117
REMARK  518  A    between atoms: _1117  and  _1118
REMARK  519  A    between atoms: _1117  and  _1120
REMARK  520  A    between atoms: _1120  and  _1121
REMARK  521  A    between atoms: _1124  and  _1125
REMARK  522  A    between atoms: _1125  and  _1126
REMARK  523  A    between atoms: _1125  and  _1128
REMARK  524  A    between atoms: _1128  and  _1129
REMARK  525  A    between atoms: _1132  and  _1133
REMARK  526  A    between atoms: _1133  and  _1134
REMARK  527  A    between atoms: _1133  and  _1136
REMARK  528  A    between atoms: _1136  and  _1137
REMARK  529  A    between atoms: _1137  and  _1138
REMARK  530  A    between atoms: _1141  and  _1142
REMARK  531  A    between atoms: _1142  and  _1143
REMARK  532  A    between atoms: _1142  and  _1145
REMARK  533  A    between atoms: _1145  and  _1146
REMARK  534  A    between atoms: _1146  and  _1147
REMARK  535  A    between atoms: _1150  and  _1151
REMARK  536  A    between atoms: _1151  and  _1152
REMARK  537  A    between atoms: _1151  and  _1154
REMARK  538  A    between atoms: _1154  and  _1155
REMARK  539  A    between atoms: _1162  and  _1163
REMARK  540  A    between atoms: _1163  and  _1164
REMARK  541  A    between atoms: _1167  and  _1168
REMARK  542  A    between atoms: _1168  and  _1169
REMARK  543  A    between atoms: _1168  and  _1171
REMARK  544  A    between atoms: _1171  and  _1172
REMARK  545  A    between atoms: _1181  and  _1182
REMARK  546  A    between atoms: _1182  and  _1183
REMARK  547  A    between atoms: _1182  and  _1185
REMARK  548  A    between atoms: _1185  and  _1186
REMARK  549  A    between atoms: _1186  and  _1187
REMARK  550  A    between atoms: _1190  and  _1191
REMARK  551  A    between atoms: _1191  and  _1192
REMARK  552  A    between atoms: _1191  and  _1194
REMARK  553  A    between atoms: _1196  and  _1197
REMARK  554  A    between atoms: _1197  and  _1198
REMARK  555  A    between atoms: _1197  and  _1200
REMARK  556  A    between atoms: _1202  and  _1203
REMARK  557  A    between atoms: _1203  and  _1204
REMARK  558  A    between atoms: _1207  and  _1208
REMARK  559  A    between atoms: _1208  and  _1209
REMARK  560  A    between atoms: _1211  and  _1212
REMARK  561  A    between atoms: _1212  and  _1213
REMARK  562  A    between atoms: _1215  and  _1216
REMARK  563  A    between atoms: _1216  and  _1217
REMARK  564  A    between atoms: _1216  and  _1219
REMARK  565  A    between atoms: _1221  and  _1222
REMARK  566  A    between atoms: _1222  and  _1223
REMARK  567  A    between atoms: _1222  and  _1225
REMARK  568  A    between atoms: _1225  and  _1226
REMARK  569  A    between atoms: _1232  and  _1233
REMARK  570  A    between atoms: _1233  and  _1234
REMARK  571  A    between atoms: _1233  and  _1236
REMARK  572  A    between atoms: _1239  and  _1240
REMARK  573  A    between atoms: _1240  and  _1241
REMARK  574  A    between atoms: _1240  and  _1243
REMARK  575  A    between atoms: _1247  and  _1249
REMARK  576  A    between atoms: _1247  and  _1252
REMARK  577  A    between atoms: _1251  and  _1252
REMARK  578  A    between atoms: _1251  and  _1254
REMARK  579  A    between atoms: _1253  and  _1254
REMARK  580  A    between atoms: _1253  and  _1256
REMARK  581  A    between atoms: _1254  and  _1255
REMARK  582  A    between atoms: _1255  and  _1257
REMARK  583  A    between atoms: _1256  and  _1258
REMARK  584  A    between atoms: _1265  and  _1266
REMARK  585  A    between atoms: _1266  and  _1267
REMARK  586  A    between atoms: _1266  and  _1269
REMARK  587  A    between atoms: _1272  and  _1273
REMARK  588  A    between atoms: _1273  and  _1274
REMARK  589  A    between atoms: _1273  and  _1276
REMARK  590  A    between atoms: _1276  and  _1277
REMARK  591  A    between atoms: _1280  and  _1281
REMARK  592  A    between atoms: _1281  and  _1282
REMARK  593  A    between atoms: _1281  and  _1284
REMARK  594  A    between atoms: _1287  and  _1288
REMARK  595  A    between atoms: _1288  and  _1289
REMARK  596  A    between atoms: _1291  and  _1292
REMARK  597  A    between atoms: _1292  and  _1293
REMARK  598  A    between atoms: _1292  and  _1295
REMARK  599  A    between atoms: _1295  and  _1296
REMARK  600  A    between atoms: _1296  and  _1297
REMARK  601  A    between atoms: _1301  and  _1302
REMARK  602  A    between atoms: _1307  and  _1308
REMARK  603  A    between atoms: _1308  and  _1309
REMARK  604  A    between atoms: _1308  and  _1311
REMARK  605  A    between atoms: _1311  and  _1312
REMARK  606  A    between atoms: _1312  and  _1313
REMARK  607  A    between atoms: _1315  and  _1316
REMARK  608  A    between atoms: _1316  and  _1317
REMARK  609  A    between atoms: _1319  and  _1320
REMARK  610  A    between atoms: _1320  and  _1321
REMARK  611  A    between atoms: _1320  and  _1323
REMARK  612  A    between atoms: _1323  and  _1324
REMARK  613  A    between atoms: _1324  and  _1325
REMARK  614  A    between atoms: _1325  and  _1326
REMARK  615  A    between atoms: _1330  and  _1331
REMARK  616  A    between atoms: _1331  and  _1332
REMARK  617  A    between atoms: _1334  and  _1335
REMARK  618  A    between atoms: _1335  and  _1336
REMARK  619  A    between atoms: _1335  and  _1338
REMARK  620  A    between atoms: _1341  and  _1342
REMARK  621  A    between atoms: _1342  and  _1343
REMARK  622  A    between atoms: _1342  and  _1345
REMARK  623  A    between atoms: _1345  and  _1346
REMARK  624  A    between atoms: _1346  and  _1347
REMARK  625  A    between atoms: _1347  and  _1348
REMARK  626  A    between atoms: _1350  and  _1351
REMARK  627  A    between atoms: _1351  and  _1352
REMARK  628  A    between atoms: _1351  and  _1354
REMARK  629  A    between atoms: _1357  and  _1358
REMARK  630  A    between atoms: _1358  and  _1359
REMARK  631  A    between atoms: _1358  and  _1361
REMARK  632  A    between atoms: _1361  and  _1362
REMARK  633  A    between atoms: _1365  and  _1366
REMARK  634  A    between atoms: _1366  and  _1367
REMARK  635  A    between atoms: _1366  and  _1369
REMARK  636  A    between atoms: _1369  and  _1370
REMARK  637  A    between atoms: _1373  and  _1374
REMARK  638  A    between atoms: _1374  and  _1375
REMARK  639  A    between atoms: _1374  and  _1377
REMARK  640  A    between atoms: _1377  and  _1378
REMARK  641  A    between atoms: _1383  and  _1384
REMARK  642  A    between atoms: _1384  and  _1385
REMARK  643  A    between atoms: _1384  and  _1387
REMARK  644  A    between atoms: _1387  and  _1388
REMARK  645  A    between atoms: _1391  and  _1392
REMARK  646  A    between atoms: _1392  and  _1393
REMARK  647  A    between atoms: _1392  and  _1395
REMARK  648  A    between atoms: _1395  and  _1396
REMARK  649  A    between atoms: _1396  and  _1397
REMARK  650  A    between atoms: _1397  and  _1398
REMARK  651  A    between atoms: _1400  and  _1401
REMARK  652  A    between atoms: _1401  and  _1402
REMARK  653  A    between atoms: _1401  and  _1404
REMARK  654  A    between atoms: _1404  and  _1405
REMARK  655  A    between atoms: _1405  and  _1406
REMARK  656  A    between atoms: _1409  and  _1410
REMARK  657  A    between atoms: _1410  and  _1411
REMARK  658  A    between atoms: _1410  and  _1413
REMARK  659  A    between atoms: _1413  and  _1414
REMARK  660  A    between atoms: _1417  and  _1418
REMARK  661  A    between atoms: _1418  and  _1419
REMARK  662  A    between atoms: _1418  and  _1421
REMARK  663  A    between atoms: _1421  and  _1422
REMARK  664  A    between atoms: _1422  and  _1423
REMARK  665  A    between atoms: _1426  and  _1427
REMARK  666  A    between atoms: _1427  and  _1428
REMARK  667  A    between atoms: _1427  and  _1430
REMARK  668  A    between atoms: _1433  and  _1434
REMARK  669  A    between atoms: _1434  and  _1435
REMARK  670  A    between atoms: _1434  and  _1437
REMARK  671  A    between atoms: _1437  and  _1438
REMARK  672  A    between atoms: _1438  and  _1439
REMARK  673  A    between atoms: _1442  and  _1443
REMARK  674  A    between atoms: _1443  and  _1444
REMARK  675  A    between atoms: _1443  and  _1446
REMARK  676  A    between atoms: _1446  and  _1447
REMARK  677  A    between atoms: _1454  and  _1455
REMARK  678  A    between atoms: _1455  and  _1456
REMARK  679  A    between atoms: _1455  and  _1458
REMARK  680  A    between atoms: _1458  and  _1459
REMARK  681  A    between atoms: _1462  and  _1463
REMARK  682  A    between atoms: _1463  and  _1464
REMARK  683  A    between atoms: _1463  and  _1466
REMARK  684  A    between atoms: _1466  and  _1467
REMARK  685  A    between atoms: _1467  and  _1468
REMARK  686  A    between atoms: _1471  and  _1472
REMARK  687  A    between atoms: _1472  and  _1473
REMARK  688  A    between atoms: _1472  and  _1475
REMARK  689  A    between atoms: _1475  and  _1476
REMARK  690  A    between atoms: _1476  and  _1477
REMARK  691  A    between atoms: _1480  and  _1481
REMARK  692  A    between atoms: _1481  and  _1482
REMARK  693  A    between atoms: _1481  and  _1484
REMARK  694  A    between atoms: _1484  and  _1485
REMARK  695  A    between atoms: _1485  and  _1486
REMARK  696  A    between atoms: _1486  and  _1487
REMARK  697  A    between atoms: _1491  and  _1492
REMARK  698  A    between atoms: _1492  and  _1493
REMARK  699  A    between atoms: _1492  and  _1495
REMARK  700  A    between atoms: _1495  and  _1496
REMARK  701  A    between atoms: _1496  and  _1497
REMARK  702  A    between atoms: _1497  and  _1498
REMARK  703  A    between atoms: _1502  and  _1503
REMARK  704  A    between atoms: _1503  and  _1504
REMARK  705  A    between atoms: _1503  and  _1506
REMARK  706  A    between atoms: _1506  and  _1507
REMARK  707  A    between atoms: _1510  and  _1511
REMARK  708  A    between atoms: _1511  and  _1512
REMARK  709  A    between atoms: _1511  and  _1514
REMARK  710  A    between atoms: _1514  and  _1515
REMARK  711  A    between atoms: _1515  and  _1516
REMARK  712  A    between atoms: _1516  and  _1517
REMARK  713  A    between atoms: _1519  and  _1520
REMARK  714  A    between atoms: _1520  and  _1521
REMARK  715  A    between atoms: _1520  and  _1523
REMARK  716  A    between atoms: _1523  and  _1524
REMARK  717  A    between atoms: _1524  and  _1525
REMARK  718  A    between atoms: _1528  and  _1529
REMARK  719  A    between atoms: _1529  and  _1530
REMARK  720  A    between atoms: _1529  and  _1532
REMARK  721  A    between atoms: _1532  and  _1533
REMARK  722  A    between atoms: _1536  and  _1537
REMARK  723  A    between atoms: _1537  and  _1538
REMARK  724  A    between atoms: _1537  and  _1540
REMARK  725  A    between atoms: _1543  and  _1544
REMARK  726  A    between atoms: _1544  and  _1545
REMARK  727  A    between atoms: _1544  and  _1547
REMARK  728  A    between atoms: _1547  and  _1548
REMARK  729  A    between atoms: _1548  and  _1549
REMARK  730  A    between atoms: _1549  and  _1550
REMARK  731  A    between atoms: _1552  and  _1553
REMARK  732  A    between atoms: _1553  and  _1554
REMARK  733  A    between atoms: _1553  and  _1556
REMARK  734  A    between atoms: _1556  and  _1557
REMARK  735  A    between atoms: _1557  and  _1558
REMARK  736  A    between atoms: _1558  and  _1559
REMARK  737  A    between atoms: _1561  and  _1562
REMARK  738  A    between atoms: _1562  and  _1563
REMARK  739  A    between atoms: _1562  and  _1565
REMARK  740  A    between atoms: _1565  and  _1566
REMARK  741  A    between atoms: _1571  and  _1572
REMARK  742  A    between atoms: _1572  and  _1573
REMARK  743  A    between atoms: _1572  and  _1575
REMARK  744  A    between atoms: _1577  and  _1578
REMARK  745  A    between atoms: _1578  and  _1579
REMARK  746  A    between atoms: _1578  and  _1581
REMARK  747  A    between atoms: _1581  and  _1582
REMARK  748  A    between atoms: _1582  and  _1583
REMARK  749  A    between atoms: _1586  and  _1587
REMARK  750  A    between atoms: _1587  and  _1588
REMARK  751  A    between atoms: _1587  and  _1590
REMARK  752  A    between atoms: _1590  and  _1591
REMARK  753  A    between atoms: _1597  and  _1598
REMARK  754  A    between atoms: _1598  and  _1599
REMARK  755  A    between atoms: _1598  and  _1601
REMARK  756  A    between atoms: _1601  and  _1602
REMARK  757  A    between atoms: _1605  and  _1606
REMARK  758  A    between atoms: _1606  and  _1607
REMARK  759  A    between atoms: _1609  and  _1610
REMARK  760  A    between atoms: _1610  and  _1611
REMARK  761  A    between atoms: _1610  and  _1613
REMARK  762  A    between atoms: _1613  and  _1614
REMARK  763  A    between atoms: _1622  and  _1623
REMARK  764  A    between atoms: _1628  and  _1629
REMARK  765  A    between atoms: _1629  and  _1630
REMARK  766  A    between atoms: _1629  and  _1632
REMARK  767  A    between atoms: _1632  and  _1633
REMARK  768  A    between atoms: _1636  and  _1637
REMARK  769  A    between atoms: _1637  and  _1638
REMARK  770  A    between atoms: _1637  and  _1640
REMARK  771  A    between atoms: _1643  and  _1644
REMARK  772  A    between atoms: _1644  and  _1645
REMARK  773  A    between atoms: _1644  and  _1647
REMARK  774  A    between atoms: _1647  and  _1648
REMARK  775  A    between atoms: _1651  and  _1652
REMARK  776  A    between atoms: _1652  and  _1653
REMARK  777  A    between atoms: _1652  and  _1655
REMARK  778  A    between atoms: _1655  and  _1656
REMARK  779  A    between atoms: _1662  and  _1663
REMARK  780  A    between atoms: _1663  and  _1664
REMARK  781  A    between atoms: _1663  and  _1666
REMARK  782  A    between atoms: _1669  and  _1670
REMARK  783  A    between atoms: _1670  and  _1671
REMARK  784  A    between atoms: _1670  and  _1673
REMARK  785  A    between atoms: _1673  and  _1674
REMARK  786  A    between atoms: _1674  and  _1675
REMARK                            x       y       z     vdW  Elec       q    Type
REMARK                         _______ _______ _______ _____ _____    ______ ____
ROOT
ATOM      1  C   UNL     1       8.911   9.655  31.107  0.00  0.00    +0.000 C 
ENDROOT
TORSDOF 0
REMARK  Name = /Users/mlugowska/PhD/ML_residence_time_prediction/protein_files/5J64_protein.pdb
REMARK  786 active torsions:
REMARK  status: ('A' for Active; 'I' for Inactive)
REMARK    1  A    between atoms: _2  and  _3
REMARK    2  A    between atoms: _2  and  _5
REMARK    3  A    between atoms: _5  and  _6
REMARK    4  A    between atoms: _6  and  _7
REMARK    5  A    between atoms: _10  and  _11
REMARK    6  A    between atoms: _11  and  _12
REMARK    7  A    between atoms: _11  and  _14
REMARK    8  A    between atoms: _17  and  _18
REMARK    9  A    between atoms: _18  and  _19
REMARK   10  A    between atoms: _18  and  _21
REMARK   11  A    between atoms: _21  and  _22
REMARK   12  A    between atoms: _22  and  _23
REMARK   13  A    between atoms: _26  and  _27
REMARK   14  A    between atoms: _27  and  _28
REMARK   15  A    between atoms: _27  and  _30
REMARK   16  A    between atoms: _33  and  _34
REMARK   17  A    between atoms: _34  and  _35
REMARK   18  A    between atoms: _34  and  _37
REMARK   19  A    between atoms: _37  and  _38
REMARK   20  A    between atoms: _44  and  _45
REMARK   21  A    between atoms: _45  and  _46
REMARK   22  A    between atoms: _49  and  _50
REMARK   23  A    between atoms: _50  and  _51
REMARK   24  A    between atoms: _50  and  _53
REMARK   25  A    between atoms: _53  and  _54
REMARK   26  A    between atoms: _60  and  _61
REMARK   27  A    between atoms: _61  and  _62
REMARK   28  A    between atoms: _61  and  _64
REMARK   29  A    between atoms: _64  and  _65
REMARK   30  A    between atoms: _65  and  _66
REMARK   31  A    between atoms: _69  and  _70
REMARK   32  A    between atoms: _70  and  _71
REMARK   33  A    between atoms: _74  and  _75
REMARK   34  A    between atoms: _75  and  _76
REMARK   35  A    between atoms: _75  and  _78
REMARK   36  A    between atoms: _78  and  _79
REMARK   37  A    between atoms: _79  and  _80
REMARK   38  A    between atoms: _83  and  _84
REMARK   39  A    between atoms: _84  and  _85
REMARK   40  A    between atoms: _84  and  _87
REMARK   41  A    between atoms: _87  and  _88
REMARK   42  A    between atoms: _91  and  _92
REMARK   43  A    between atoms: _92  and  _93
REMARK   44  A    between atoms: _96  and  _97
REMARK   45  A    between atoms: _97  and  _98
REMARK   46  A    between atoms: _97  and  _100
REMARK   47  A    between atoms: _100  and  _101
REMARK   48  A    between atoms: _101  and  _102
REMARK   49  A    between atoms: _105  and  _106
REMARK   50  A    between atoms: _106  and  _107
REMARK   51  A    between atoms: _106  and  _109
REMARK   52  A    between atoms: _109  and  _110
REMARK   53  A    between atoms: _113  and  _114
REMARK   54  A    between atoms: _114  and  _115
REMARK   55  A    between atoms: _114  and  _117
REMARK   56  A    between atoms: _117  and  _118
REMARK   57  A    between atoms: _118  and  _119
REMARK   58  A    between atoms: _121  and  _122
REMARK   59  A    between atoms: _122  and  _123
REMARK   60  A    between atoms: _122  and  _125
REMARK   61  A    between atoms: _127  and  _128
REMARK   62  A    between atoms: _128  and  _129
REMARK   63  A    between atoms: _128  and  _131
REMARK   64  A    between atoms: _131  and  _132
REMARK   65  A    between atoms: _135  and  _136
REMARK   66  A    between atoms: _136  and  _137
REMARK   67  A    between atoms: _136  and  _139
REMARK   68  A    between atoms: _139  and  _140
REMARK   69  A    between atoms: _143  and  _144
REMARK   70  A    between atoms: _144  and  _145
REMARK   71  A    between atoms: _144  and  _147
REMARK   72  A    between atoms: _147  and  _148
REMARK   73  A    between atoms: _151  and  _152
REMARK   74  A    between atoms: _152  and  _153
REMARK   75  A    between atoms: _152  and  _155
REMARK   76  A    between atoms: _155  and  _156
REMARK   77  A    between atoms: _159  and  _160
REMARK   78  A    between atoms: _160  and  _161
REMARK   79  A    between atoms: _160  and  _163
REMARK   80  A    between atoms: _166  and  _167
REMARK   81  A    between atoms: _167  and  _170
REMARK   82  A    between atoms: _170  and  _171
REMARK   83  A    between atoms: _181  and  _183
REMARK   84  A    between atoms: _183  and  _184
REMARK   85  A    between atoms: _189  and  _194
REMARK   86  A    between atoms: _192  and  _195
REMARK   87  A    between atoms: _193  and  _194
REMARK   88  A    between atoms: _195  and  _196
REMARK   89  A    between atoms: _201  and  _202
REMARK   90  A    between atoms: _202  and  _203
REMARK   91  A    between atoms: _202  and  _205
REMARK   92  A    between atoms: _207  and  _208
REMARK   93  A    between atoms: _208  and  _209
REMARK   94  A    between atoms: _208  and  _211
REMARK   95  A    between atoms: _211  and  _212
REMARK   96  A    between atoms: _215  and  _216
REMARK   97  A    between atoms: _216  and  _217
REMARK   98  A    between atoms: _216  and  _219
REMARK   99  A    between atoms: _219  and  _220
REMARK  100  A    between atoms: _220  and  _221
REMARK  101  A    between atoms: _221  and  _222
REMARK  102  A    between atoms: _224  and  _225
REMARK  103  A    between atoms: _225  and  _226
REMARK  104  A    between atoms: _225  and  _228
REMARK  105  A    between atoms: _228  and  _229
REMARK  106  A    between atoms: _229  and  _230
REMARK  107  A    between atoms: _233  and  _234
REMARK  108  A    between atoms: _234  and  _235
REMARK  109  A    between atoms: _234  and  _237
REMARK  110  A    between atoms: _237  and  _238
REMARK  111  A    between atoms: _241  and  _242
REMARK  112  A    between atoms: _242  and  _243
REMARK  113  A    between atoms: _242  and  _245
REMARK  114  A    between atoms: _245  and  _246
REMARK  115  A    between atoms: _252  and  _253
REMARK  116  A    between atoms: _253  and  _254
REMARK  117  A    between atoms: _253  and  _256
REMARK  118  A    between atoms: _256  and  _257
REMARK  119  A    between atoms: _260  and  _261
REMARK  120  A    between atoms: _261  and  _262
REMARK  121  A    between atoms: _261  and  _264
REMARK  122  A    between atoms: _264  and  _265
REMARK  123  A    between atoms: _265  and  _266
REMARK  124  A    between atoms: _266  and  _267
REMARK  125  A    between atoms: _271  and  _272
REMARK  126  A    between atoms: _272  and  _273
REMARK  127  A    between atoms: _272  and  _275
REMARK  128  A    between atoms: _275  and  _276
REMARK  129  A    between atoms: _276  and  _277
REMARK  130  A    between atoms: _280  and  _281
REMARK  131  A    between atoms: _281  and  _282
REMARK  132  A    between atoms: _281  and  _284
REMARK  133  A    between atoms: _284  and  _285
REMARK  134  A    between atoms: _288  and  _289
REMARK  135  A    between atoms: _289  and  _292
REMARK  136  A    between atoms: _292  and  _293
REMARK  137  A    between atoms: _309  and  _310
REMARK  138  A    between atoms: _309  and  _312
REMARK  139  A    between atoms: _312  and  _313
REMARK  140  A    between atoms: _316  and  _317
REMARK  141  A    between atoms: _317  and  _318
REMARK  142  A    between atoms: _317  and  _320
REMARK  143  A    between atoms: _322  and  _323
REMARK  144  A    between atoms: _323  and  _324
REMARK  145  A    between atoms: _323  and  _326
REMARK  146  A    between atoms: _328  and  _329
REMARK  147  A    between atoms: _329  and  _330
REMARK  148  A    between atoms: _329  and  _332
REMARK  149  A    between atoms: _332  and  _333
REMARK  150  A    between atoms: _336  and  _337
REMARK  151  A    between atoms: _337  and  _338
REMARK  152  A    between atoms: _341  and  _342
REMARK  153  A    between atoms: _342  and  _343
REMARK  154  A    between atoms: _342  and  _345
REMARK  155  A    between atoms: _345  and  _346
REMARK  156  A    between atoms: _349  and  _350
REMARK  157  A    between atoms: _350  and  _351
REMARK  158  A    between atoms: _350  and  _353
REMARK  159  A    between atoms: _353  and  _354
REMARK  160  A    between atoms: _357  and  _358
REMARK  161  A    between atoms: _358  and  _359
REMARK  162  A    between atoms: _358  and  _361
REMARK  163  A    between atoms: _361  and  _362
REMARK  164  A    between atoms: _362  and  _363
REMARK  165  A    between atoms: _363  and  _364
REMARK  166  A    between atoms: _366  and  _367
REMARK  167  A    between atoms: _367  and  _368
REMARK  168  A    between atoms: _367  and  _370
REMARK  169  A    between atoms: _370  and  _371
REMARK  170  A    between atoms: _374  and  _375
REMARK  171  A    between atoms: _375  and  _376
REMARK  172  A    between atoms: _375  and  _378
REMARK  173  A    between atoms: _378  and  _379
REMARK  174  A    between atoms: _379  and  _380
REMARK  175  A    between atoms: _380  and  _381
REMARK  176  A    between atoms: _385  and  _386
REMARK  177  A    between atoms: _386  and  _387
REMARK  178  A    between atoms: _386  and  _389
REMARK  179  A    between atoms: _389  and  _390
REMARK  180  A    between atoms: _397  and  _398
REMARK  181  A    between atoms: _398  and  _399
REMARK  182  A    between atoms: _398  and  _401
REMARK  183  A    between atoms: _401  and  _402
REMARK  184  A    between atoms: _402  and  _403
REMARK  185  A    between atoms: _406  and  _407
REMARK  186  A    between atoms: _407  and  _408
REMARK  187  A    between atoms: _407  and  _410
REMARK  188  A    between atoms: _412  and  _413
REMARK  189  A    between atoms: _413  and  _414
REMARK  190  A    between atoms: _413  and  _416
REMARK  191  A    between atoms: _416  and  _417
REMARK  192  A    between atoms: _420  and  _421
REMARK  193  A    between atoms: _421  and  _422
REMARK  194  A    between atoms: _421  and  _424
REMARK  195  A    between atoms: _427  and  _428
REMARK  196  A    between atoms: _428  and  _429
REMARK  197  A    between atoms: _428  and  _431
REMARK  198  A    between atoms: _431  and  _432
REMARK  199  A    between atoms: _436  and  _437
REMARK  200  A    between atoms: _442  and  _443
REMARK  201  A    between atoms: _443  and  _444
REMARK  202  A    between atoms: _443  and  _446
REMARK  203  A    between atoms: _448  and  _449
REMARK  204  A    between atoms: _449  and  _450
REMARK  205  A    between atoms: _449  and  _452
REMARK  206  A    between atoms: _452  and  _453
REMARK  207  A    between atoms: _453  and  _454
REMARK  208  A    between atoms: _454  and  _455
REMARK  209  A    between atoms: _457  and  _458
REMARK  210  A    between atoms: _458  and  _459
REMARK  211  A    between atoms: _458  and  _461
REMARK  212  A    between atoms: _461  and  _462
REMARK  213  A    between atoms: _465  and  _466
REMARK  214  A    between atoms: _466  and  _467
REMARK  215  A    between atoms: _466  and  _469
REMARK  216  A    between atoms: _469  and  _470
REMARK  217  A    between atoms: _473  and  _474
REMARK  218  A    between atoms: _474  and  _475
REMARK  219  A    between atoms: _474  and  _477
REMARK  220  A    between atoms: _479  and  _480
REMARK  221  A    between atoms: _480  and  _481
REMARK  222  A    between atoms: _483  and  _484
REMARK  223  A    between atoms: _484  and  _485
REMARK  224  A    between atoms: _484  and  _487
REMARK  225  A    between atoms: _487  and  _488
REMARK  226  A    between atoms: _488  and  _489
REMARK  227  A    between atoms: _489  and  _490
REMARK  228  A    between atoms: _492  and  _493
REMARK  229  A    between atoms: _493  and  _494
REMARK  230  A    between atoms: _493  and  _496
REMARK  231  A    between atoms: _496  and  _497
REMARK  232  A    between atoms: _497  and  _498
REMARK  233  A    between atoms: _501  and  _502
REMARK  234  A    between atoms: _502  and  _503
REMARK  235  A    between atoms: _502  and  _505
REMARK  236  A    between atoms: _505  and  _506
REMARK  237  A    between atoms: _509  and  _510
REMARK  238  A    between atoms: _510  and  _511
REMARK  239  A    between atoms: _510  and  _513
REMARK  240  A    between atoms: _513  and  _514
REMARK  241  A    between atoms: _519  and  _520
REMARK  242  A    between atoms: _520  and  _521
REMARK  243  A    between atoms: _520  and  _523
REMARK  244  A    between atoms: _523  and  _524
REMARK  245  A    between atoms: _527  and  _528
REMARK  246  A    between atoms: _528  and  _529
REMARK  247  A    between atoms: _528  and  _531
REMARK  248  A    between atoms: _531  and  _532
REMARK  249  A    between atoms: _535  and  _536
REMARK  250  A    between atoms: _536  and  _537
REMARK  251  A    between atoms: _536  and  _539
REMARK  252  A    between atoms: _539  and  _540
REMARK  253  A    between atoms: _543  and  _544
REMARK  254  A    between atoms: _544  and  _545
REMARK  255  A    between atoms: _544  and  _547
REMARK  256  A    between atoms: _547  and  _548
REMARK  257  A    between atoms: _552  and  _553
REMARK  258  A    between atoms: _558  and  _559
REMARK  259  A    between atoms: _559  and  _560
REMARK  260  A    between atoms: _559  and  _562
REMARK  261  A    between atoms: _562  and  _563
REMARK  262  A    between atoms: _566  and  _567
REMARK  263  A    between atoms: _567  and  _568
REMARK  264  A    between atoms: _567  and  _570
REMARK  265  A    between atoms: _570  and  _571
REMARK  266  A    between atoms: _571  and  _572
REMARK  267  A    between atoms: _572  and  _573
REMARK  268  A    between atoms: _575  and  _576
REMARK  269  A    between atoms: _576  and  _577
REMARK  270  A    between atoms: _576  and  _579
REMARK  271  A    between atoms: _579  and  _580
REMARK  272  A    between atoms: _580  and  _581
REMARK  273  A    between atoms: _584  and  _585
REMARK  274  A    between atoms: _585  and  _586
REMARK  275  A    between atoms: _585  and  _588
REMARK  276  A    between atoms: _588  and  _589
REMARK  277  A    between atoms: _592  and  _593
REMARK  278  A    between atoms: _593  and  _594
REMARK  279  A    between atoms: _593  and  _596
REMARK  280  A    between atoms: _596  and  _597
REMARK  281  A    between atoms: _597  and  _598
REMARK  282  A    between atoms: _598  and  _599
REMARK  283  A    between atoms: _603  and  _604
REMARK  284  A    between atoms: _604  and  _605
REMARK  285  A    between atoms: _604  and  _607
REMARK  286  A    between atoms: _610  and  _611
REMARK  287  A    between atoms: _611  and  _612
REMARK  288  A    between atoms: _611  and  _614
REMARK  289  A    between atoms: _614  and  _615
REMARK  290  A    between atoms: _618  and  _619
REMARK  291  A    between atoms: _619  and  _620
REMARK  292  A    between atoms: _619  and  _622
REMARK  293  A    between atoms: _625  and  _626
REMARK  294  A    between atoms: _626  and  _627
REMARK  295  A    between atoms: _626  and  _629
REMARK  296  A    between atoms: _629  and  _630
REMARK  297  A    between atoms: _633  and  _634
REMARK  298  A    between atoms: _634  and  _635
REMARK  299  A    between atoms: _634  and  _637
REMARK  300  A    between atoms: _640  and  _641
REMARK  301  A    between atoms: _641  and  _642
REMARK  302  A    between atoms: _641  and  _644
REMARK  303  A    between atoms: _644  and  _645
REMARK  304  A    between atoms: _648  and  _649
REMARK  305  A    between atoms: _649  and  _650
REMARK  306  A    between atoms: _649  and  _652
REMARK  307  A    between atoms: _655  and  _656
REMARK  308  A    between atoms: _656  and  _657
REMARK  309  A    between atoms: _659  and  _660
REMARK  310  A    between atoms: _660  and  _661
REMARK  311  A    between atoms: _660  and  _663
REMARK  312  A    between atoms: _663  and  _664
REMARK  313  A    between atoms: _667  and  _668
REMARK  314  A    between atoms: _668  and  _669
REMARK  315  A    between atoms: _671  and  _672
REMARK  316  A    between atoms: _672  and  _673
REMARK  317  A    between atoms: _672  and  _675
REMARK  318  A    between atoms: _675  and  _676
REMARK  319  A    between atoms: _676  and  _677
REMARK  320  A    between atoms: _679  and  _680
REMARK  321  A    between atoms: _680  and  _681
REMARK  322  A    between atoms: _680  and  _683
REMARK  323  A    between atoms: _686  and  _687
REMARK  324  A    between atoms: _687  and  _688
REMARK  325  A    between atoms: _687  and  _690
REMARK  326  A    between atoms: _690  and  _691
REMARK  327  A    between atoms: _691  and  _692
REMARK  328  A    between atoms: _692  and  _693
REMARK  329  A    between atoms: _695  and  _696
REMARK  330  A    between atoms: _696  and  _697
REMARK  331  A    between atoms: _700  and  _701
REMARK  332  A    between atoms: _701  and  _702
REMARK  333  A    between atoms: _701  and  _704
REMARK  334  A    between atoms: _704  and  _705
REMARK  335  A    between atoms: _708  and  _709
REMARK  336  A    between atoms: _709  and  _710
REMARK  337  A    between atoms: _709  and  _712
REMARK  338  A    between atoms: _712  and  _713
REMARK  339  A    between atoms: _716  and  _717
REMARK  340  A    between atoms: _717  and  _720
REMARK  341  A    between atoms: _720  and  _721
REMARK  342  A    between atoms: _733  and  _734
REMARK  343  A    between atoms: _733  and  _735
REMARK  344  A    between atoms: _741  and  _744
REMARK  345  A    between atoms: _744  and  _745
REMARK  346  A    between atoms: _758  and  _759
REMARK  347  A    between atoms: _758  and  _761
REMARK  348  A    between atoms: _759  and  _760
REMARK  349  A    between atoms: _765  and  _766
REMARK  350  A    between atoms: _768  and  _769
REMARK  351  A    between atoms: _769  and  _770
REMARK  352  A    between atoms: _769  and  _772
REMARK  353  A    between atoms: _775  and  _776
REMARK  354  A    between atoms: _776  and  _777
REMARK  355  A    between atoms: _776  and  _779
REMARK  356  A    between atoms: _779  and  _780
REMARK  357  A    between atoms: _783  and  _784
REMARK  358  A    between atoms: _784  and  _785
REMARK  359  A    between atoms: _788  and  _789
REMARK  360  A    between atoms: _789  and  _790
REMARK  361  A    between atoms: _789  and  _792
REMARK  362  A    between atoms: _792  and  _793
REMARK  363  A    between atoms: _793  and  _794
REMARK  364  A    between atoms: _794  and  _795
REMARK  365  A    between atoms: _797  and  _798
REMARK  366  A    between atoms: _798  and  _799
REMARK  367  A    between atoms: _798  and  _801
REMARK  368  A    between atoms: _803  and  _804
REMARK  369  A    between atoms: _804  and  _805
REMARK  370  A    between atoms: _807  and  _808
REMARK  371  A    between atoms: _808  and  _809
REMARK  372  A    between atoms: _808  and  _811
REMARK  373  A    between atoms: _814  and  _815
REMARK  374  A    between atoms: _815  and  _816
REMARK  375  A    between atoms: _815  and  _818
REMARK  376  A    between atoms: _818  and  _819
REMARK  377  A    between atoms: _819  and  _820
REMARK  378  A    between atoms: _820  and  _821
REMARK  379  A    between atoms: _823  and  _824
REMARK  380  A    between atoms: _824  and  _825
REMARK  381  A    between atoms: _828  and  _829
REMARK  382  A    between atoms: _829  and  _830
REMARK  383  A    between atoms: _829  and  _832
REMARK  384  A    between atoms: _832  and  _833
REMARK  385  A    between atoms: _839  and  _840
REMARK  386  A    between atoms: _840  and  _841
REMARK  387  A    between atoms: _840  and  _843
REMARK  388  A    between atoms: _843  and  _844
REMARK  389  A    between atoms: _844  and  _845
REMARK  390  A    between atoms: _847  and  _848
REMARK  391  A    between atoms: _848  and  _849
REMARK  392  A    between atoms: _848  and  _851
REMARK  393  A    between atoms: _851  and  _852
REMARK  394  A    between atoms: _852  and  _853
REMARK  395  A    between atoms: _856  and  _857
REMARK  396  A    between atoms: _857  and  _858
REMARK  397  A    between atoms: _861  and  _862
REMARK  398  A    between atoms: _862  and  _863
REMARK  399  A    between atoms: _862  and  _865
REMARK  400  A    between atoms: _865  and  _866
REMARK  401  A    between atoms: _869  and  _870
REMARK  402  A    between atoms: _870  and  _871
REMARK  403  A    between atoms: _870  and  _873
REMARK  404  A    between atoms: _873  and  _874
REMARK  405  A    between atoms: _874  and  _875
REMARK  406  A    between atoms: _878  and  _879
REMARK  407  A    between atoms: _879  and  _880
REMARK  408  A    between atoms: _883  and  _884
REMARK  409  A    between atoms: _884  and  _885
REMARK  410  A    between atoms: _887  and  _888
REMARK  411  A    between atoms: _888  and  _889
REMARK  412  A    between atoms: _892  and  _893
REMARK  413  A    between atoms: _893  and  _894
REMARK  414  A    between atoms: _893  and  _896
REMARK  415  A    between atoms: _896  and  _897
REMARK  416  A    between atoms: _900  and  _901
REMARK  417  A    between atoms: _901  and  _902
REMARK  418  A    between atoms: _901  and  _904
REMARK  419  A    between atoms: _904  and  _905
REMARK  420  A    between atoms: _908  and  _909
REMARK  421  A    between atoms: _909  and  _910
REMARK  422  A    between atoms: _909  and  _912
REMARK  423  A    between atoms: _914  and  _915
REMARK  424  A    between atoms: _915  and  _916
REMARK  425  A    between atoms: _915  and  _918
REMARK  426  A    between atoms: _918  and  _919
REMARK  427  A    between atoms: _919  and  _920
REMARK  428  A    between atoms: _922  and  _923
REMARK  429  A    between atoms: _923  and  _924
REMARK  430  A    between atoms: _923  and  _926
REMARK  431  A    between atoms: _926  and  _927
REMARK  432  A    between atoms: _930  and  _931
REMARK  433  A    between atoms: _931  and  _932
REMARK  434  A    between atoms: _934  and  _935
REMARK  435  A    between atoms: _935  and  _936
REMARK  436  A    between atoms: _935  and  _938
REMARK  437  A    between atoms: _938  and  _939
REMARK  438  A    between atoms: _939  and  _940
REMARK  439  A    between atoms: _943  and  _944
REMARK  440  A    between atoms: _944  and  _945
REMARK  441  A    between atoms: _944  and  _947
REMARK  442  A    between atoms: _947  and  _948
REMARK  443  A    between atoms: _954  and  _955
REMARK  444  A    between atoms: _955  and  _956
REMARK  445  A    between atoms: _958  and  _959
REMARK  446  A    between atoms: _959  and  _960
REMARK  447  A    between atoms: _959  and  _962
REMARK  448  A    between atoms: _965  and  _966
REMARK  449  A    between atoms: _966  and  _967
REMARK  450  A    between atoms: _969  and  _970
REMARK  451  A    between atoms: _970  and  _971
REMARK  452  A    between atoms: _970  and  _973
REMARK  453  A    between atoms: _973  and  _974
REMARK  454  A    between atoms: _980  and  _981
REMARK  455  A    between atoms: _981  and  _982
REMARK  456  A    between atoms: _981  and  _984
REMARK  457  A    between atoms: _984  and  _985
REMARK  458  A    between atoms: _992  and  _993
REMARK  459  A    between atoms: _993  and  _994
REMARK  460  A    between atoms: _993  and  _996
REMARK  461  A    between atoms: _998  and  _999
REMARK  462  A    between atoms: _999  and  _1000
REMARK  463  A    between atoms: _1003  and  _1004
REMARK  464  A    between atoms: _1004  and  _1005
REMARK  465  A    between atoms: _1004  and  _1007
REMARK  466  A    between atoms: _1007  and  _1008
REMARK  467  A    between atoms: _1015  and  _1016
REMARK  468  A    between atoms: _1016  and  _1017
REMARK  469  A    between atoms: _1016  and  _1019
REMARK  470  A    between atoms: _1019  and  _1020
REMARK  471  A    between atoms: _1023  and  _1024
REMARK  472  A    between atoms: _1024  and  _1025
REMARK  473  A    between atoms: _1024  and  _1027
REMARK  474  A    between atoms: _1030  and  _1031
REMARK  475  A    between atoms: _1031  and  _1032
REMARK  476  A    between atoms: _1035  and  _1036
REMARK  477  A    between atoms: _1036  and  _1037
REMARK  478  A    between atoms: _1036  and  _1039
REMARK  479  A    between atoms: _1039  and  _1040
REMARK  480  A    between atoms: _1040  and  _1041
REMARK  481  A    between atoms: _1044  and  _1045
REMARK  482  A    between atoms: _1045  and  _1046
REMARK  483  A    between atoms: _1045  and  _1048
REMARK  484  A    between atoms: _1048  and  _1049
REMARK  485  A    between atoms: _1049  and  _1050
REMARK  486  A    between atoms: _1050  and  _1051
REMARK  487  A    between atoms: _1053  and  _1054
REMARK  488  A    between atoms: _1054  and  _1055
REMARK  489  A    between atoms: _1054  and  _1057
REMARK  490  A    between atoms: _1060  and  _1061
REMARK  491  A    between atoms: _1061  and  _1062
REMARK  492  A    between atoms: _1061  and  _1064
REMARK  493  A    between atoms: _1067  and  _1068
REMARK  494  A    between atoms: _1068  and  _1069
REMARK  495  A    between atoms: _1068  and  _1071
REMARK  496  A    between atoms: _1074  and  _1075
REMARK  497  A    between atoms: _1075  and  _1076
REMARK  498  A    between atoms: _1075  and  _1078
REMARK  499  A    between atoms: _1078  and  _1079
REMARK  500  A    between atoms: _1082  and  _1083
REMARK  501  A    between atoms: _1083  and  _1084
REMARK  502  A    between atoms: _1083  and  _1086
REMARK  503  A    between atoms: _1089  and  _1090
REMARK  504  A    between atoms: _1090  and  _1091
REMARK  505  A    between atoms: _1090  and  _1093
REMARK  506  A    between atoms: _1093  and  _1094
REMARK  507  A    between atoms: _1094  and  _1095
REMARK  508  A    between atoms: _1095  and  _1096
REMARK  509  A    between atoms: _1098  and  _1099
REMARK  510  A    between atoms: _1099  and  _1100
REMARK  511  A    between atoms: _1099  and  _1102
REMARK  512  A    between atoms: _1102  and  _1103
REMARK  513  A    between atoms: _1108  and  _1109
REMARK  514  A    between atoms: _1109  and  _1110
REMARK  515  A    between atoms: _1109  and  _1112
REMARK  516  A    between atoms: _1112  and  _1113
REMARK  517  A    between atoms: _1116  and  _1117
REMARK  518  A    between atoms: _1117  and  _1118
REMARK  519  A    between atoms: _1117  and  _1120
REMARK  520  A    between atoms: _1120  and  _1121
REMARK  521  A    between atoms: _1124  and  _1125
REMARK  522  A    between atoms: _1125  and  _1126
REMARK  523  A    between atoms: _1125  and  _1128
REMARK  524  A    between atoms: _1128  and  _1129
REMARK  525  A    between atoms: _1132  and  _1133
REMARK  526  A    between atoms: _1133  and  _1134
REMARK  527  A    between atoms: _1133  and  _1136
REMARK  528  A    between atoms: _1136  and  _1137
REMARK  529  A    between atoms: _1137  and  _1138
REMARK  530  A    between atoms: _1141  and  _1142
REMARK  531  A    between atoms: _1142  and  _1143
REMARK  532  A    between atoms: _1142  and  _1145
REMARK  533  A    between atoms: _1145  and  _1146
REMARK  534  A    between atoms: _1146  and  _1147
REMARK  535  A    between atoms: _1150  and  _1151
REMARK  536  A    between atoms: _1151  and  _1152
REMARK  537  A    between atoms: _1151  and  _1154
REMARK  538  A    between atoms: _1154  and  _1155
REMARK  539  A    between atoms: _1162  and  _1163
REMARK  540  A    between atoms: _1163  and  _1164
REMARK  541  A    between atoms: _1167  and  _1168
REMARK  542  A    between atoms: _1168  and  _1169
REMARK  543  A    between atoms: _1168  and  _1171
REMARK  544  A    between atoms: _1171  and  _1172
REMARK  545  A    between atoms: _1181  and  _1182
REMARK  546  A    between atoms: _1182  and  _1183
REMARK  547  A    between atoms: _1182  and  _1185
REMARK  548  A    between atoms: _1185  and  _1186
REMARK  549  A    between atoms: _1186  and  _1187
REMARK  550  A    between atoms: _1190  and  _1191
REMARK  551  A    between atoms: _1191  and  _1192
REMARK  552  A    between atoms: _1191  and  _1194
REMARK  553  A    between atoms: _1196  and  _1197
REMARK  554  A    between atoms: _1197  and  _1198
REMARK  555  A    between atoms: _1197  and  _1200
REMARK  556  A    between atoms: _1202  and  _1203
REMARK  557  A    between atoms: _1203  and  _1204
REMARK  558  A    between atoms: _1207  and  _1208
REMARK  559  A    between atoms: _1208  and  _1209
REMARK  560  A    between atoms: _1211  and  _1212
REMARK  561  A    between atoms: _1212  and  _1213
REMARK  562  A    between atoms: _1215  and  _1216
REMARK  563  A    between atoms: _1216  and  _1217
REMARK  564  A    between atoms: _1216  and  _1219
REMARK  565  A    between atoms: _1221  and  _1222
REMARK  566  A    between atoms: _1222  and  _1223
REMARK  567  A    between atoms: _1222  and  _1225
REMARK  568  A    between atoms: _1225  and  _1226
REMARK  569  A    between atoms: _1232  and  _1233
REMARK  570  A    between atoms: _1233  and  _1234
REMARK  571  A    between atoms: _1233  and  _1236
REMARK  572  A    between atoms: _1239  and  _1240
REMARK  573  A    between atoms: _1240  and  _1241
REMARK  574  A    between atoms: _1240  and  _1243
REMARK  575  A    between atoms: _1247  and  _1249
REMARK  576  A    between atoms: _1247  and  _1252
REMARK  577  A    between atoms: _1251  and  _1252
REMARK  578  A    between atoms: _1251  and  _1254
REMARK  579  A    between atoms: _1253  and  _1254
REMARK  580  A    between atoms: _1253  and  _1256
REMARK  581  A    between atoms: _1254  and  _1255
REMARK  582  A    between atoms: _1255  and  _1257
REMARK  583  A    between atoms: _1256  and  _1258
REMARK  584  A    between atoms: _1265  and  _1266
REMARK  585  A    between atoms: _1266  and  _1267
REMARK  586  A    between atoms: _1266  and  _1269
REMARK  587  A    between atoms: _1272  and  _1273
REMARK  588  A    between atoms: _1273  and  _1274
REMARK  589  A    between atoms: _1273  and  _1276
REMARK  590  A    between atoms: _1276  and  _1277
REMARK  591  A    between atoms: _1280  and  _1281
REMARK  592  A    between atoms: _1281  and  _1282
REMARK  593  A    between atoms: _1281  and  _1284
REMARK  594  A    between atoms: _1287  and  _1288
REMARK  595  A    between atoms: _1288  and  _1289
REMARK  596  A    between atoms: _1291  and  _1292
REMARK  597  A    between atoms: _1292  and  _1293
REMARK  598  A    between atoms: _1292  and  _1295
REMARK  599  A    between atoms: _1295  and  _1296
REMARK  600  A    between atoms: _1296  and  _1297
REMARK  601  A    between atoms: _1301  and  _1302
REMARK  602  A    between atoms: _1307  and  _1308
REMARK  603  A    between atoms: _1308  and  _1309
REMARK  604  A    between atoms: _1308  and  _1311
REMARK  605  A    between atoms: _1311  and  _1312
REMARK  606  A    between atoms: _1312  and  _1313
REMARK  607  A    between atoms: _1315  and  _1316
REMARK  608  A    between atoms: _1316  and  _1317
REMARK  609  A    between atoms: _1319  and  _1320
REMARK  610  A    between atoms: _1320  and  _1321
REMARK  611  A    between atoms: _1320  and  _1323
REMARK  612  A    between atoms: _1323  and  _1324
REMARK  613  A    between atoms: _1324  and  _1325
REMARK  614  A    between atoms: _1325  and  _1326
REMARK  615  A    between atoms: _1330  and  _1331
REMARK  616  A    between atoms: _1331  and  _1332
REMARK  617  A    between atoms: _1334  and  _1335
REMARK  618  A    between atoms: _1335  and  _1336
REMARK  619  A    between atoms: _1335  and  _1338
REMARK  620  A    between atoms: _1341  and  _1342
REMARK  621  A    between atoms: _1342  and  _1343
REMARK  622  A    between atoms: _1342  and  _1345
REMARK  623  A    between atoms: _1345  and  _1346
REMARK  624  A    between atoms: _1346  and  _1347
REMARK  625  A    between atoms: _1347  and  _1348
REMARK  626  A    between atoms: _1350  and  _1351
REMARK  627  A    between atoms: _1351  and  _1352
REMARK  628  A    between atoms: _1351  and  _1354
REMARK  629  A    between atoms: _1357  and  _1358
REMARK  630  A    between atoms: _1358  and  _1359
REMARK  631  A    between atoms: _1358  and  _1361
REMARK  632  A    between atoms: _1361  and  _1362
REMARK  633  A    between atoms: _1365  and  _1366
REMARK  634  A    between atoms: _1366  and  _1367
REMARK  635  A    between atoms: _1366  and  _1369
REMARK  636  A    between atoms: _1369  and  _1370
REMARK  637  A    between atoms: _1373  and  _1374
REMARK  638  A    between atoms: _1374  and  _1375
REMARK  639  A    between atoms: _1374  and  _1377
REMARK  640  A    between atoms: _1377  and  _1378
REMARK  641  A    between atoms: _1383  and  _1384
REMARK  642  A    between atoms: _1384  and  _1385
REMARK  643  A    between atoms: _1384  and  _1387
REMARK  644  A    between atoms: _1387  and  _1388
REMARK  645  A    between atoms: _1391  and  _1392
REMARK  646  A    between atoms: _1392  and  _1393
REMARK  647  A    between atoms: _1392  and  _1395
REMARK  648  A    between atoms: _1395  and  _1396
REMARK  649  A    between atoms: _1396  and  _1397
REMARK  650  A    between atoms: _1397  and  _1398
REMARK  651  A    between atoms: _1400  and  _1401
REMARK  652  A    between atoms: _1401  and  _1402
REMARK  653  A    between atoms: _1401  and  _1404
REMARK  654  A    between atoms: _1404  and  _1405
REMARK  655  A    between atoms: _1405  and  _1406
REMARK  656  A    between atoms: _1409  and  _1410
REMARK  657  A    between atoms: _1410  and  _1411
REMARK  658  A    between atoms: _1410  and  _1413
REMARK  659  A    between atoms: _1413  and  _1414
REMARK  660  A    between atoms: _1417  and  _1418
REMARK  661  A    between atoms: _1418  and  _1419
REMARK  662  A    between atoms: _1418  and  _1421
REMARK  663  A    between atoms: _1421  and  _1422
REMARK  664  A    between atoms: _1422  and  _1423
REMARK  665  A    between atoms: _1426  and  _1427
REMARK  666  A    between atoms: _1427  and  _1428
REMARK  667  A    between atoms: _1427  and  _1430
REMARK  668  A    between atoms: _1433  and  _1434
REMARK  669  A    between atoms: _1434  and  _1435
REMARK  670  A    between atoms: _1434  and  _1437
REMARK  671  A    between atoms: _1437  and  _1438
REMARK  672  A    between atoms: _1438  and  _1439
REMARK  673  A    between atoms: _1442  and  _1443
REMARK  674  A    between atoms: _1443  and  _1444
REMARK  675  A    between atoms: _1443  and  _1446
REMARK  676  A    between atoms: _1446  and  _1447
REMARK  677  A    between atoms: _1454  and  _1455
REMARK  678  A    between atoms: _1455  and  _1456
REMARK  679  A    between atoms: _1455  and  _1458
REMARK  680  A    between atoms: _1458  and  _1459
REMARK  681  A    between atoms: _1462  and  _1463
REMARK  682  A    between atoms: _1463  and  _1464
REMARK  683  A    between atoms: _1463  and  _1466
REMARK  684  A    between atoms: _1466  and  _1467
REMARK  685  A    between atoms: _1467  and  _1468
REMARK  686  A    between atoms: _1471  and  _1472
REMARK  687  A    between atoms: _1472  and  _1473
REMARK  688  A    between atoms: _1472  and  _1475
REMARK  689  A    between atoms: _1475  and  _1476
REMARK  690  A    between atoms: _1476  and  _1477
REMARK  691  A    between atoms: _1480  and  _1481
REMARK  692  A    between atoms: _1481  and  _1482
REMARK  693  A    between atoms: _1481  and  _1484
REMARK  694  A    between atoms: _1484  and  _1485
REMARK  695  A    between atoms: _1485  and  _1486
REMARK  696  A    between atoms: _1486  and  _1487
REMARK  697  A    between atoms: _1491  and  _1492
REMARK  698  A    between atoms: _1492  and  _1493
REMARK  699  A    between atoms: _1492  and  _1495
REMARK  700  A    between atoms: _1495  and  _1496
REMARK  701  A    between atoms: _1496  and  _1497
REMARK  702  A    between atoms: _1497  and  _1498
REMARK  703  A    between atoms: _1502  and  _1503
REMARK  704  A    between atoms: _1503  and  _1504
REMARK  705  A    between atoms: _1503  and  _1506
REMARK  706  A    between atoms: _1506  and  _1507
REMARK  707  A    between atoms: _1510  and  _1511
REMARK  708  A    between atoms: _1511  and  _1512
REMARK  709  A    between atoms: _1511  and  _1514
REMARK  710  A    between atoms: _1514  and  _1515
REMARK  711  A    between atoms: _1515  and  _1516
REMARK  712  A    between atoms: _1516  and  _1517
REMARK  713  A    between atoms: _1519  and  _1520
REMARK  714  A    between atoms: _1520  and  _1521
REMARK  715  A    between atoms: _1520  and  _1523
REMARK  716  A    between atoms: _1523  and  _1524
REMARK  717  A    between atoms: _1524  and  _1525
REMARK  718  A    between atoms: _1528  and  _1529
REMARK  719  A    between atoms: _1529  and  _1530
REMARK  720  A    between atoms: _1529  and  _1532
REMARK  721  A    between atoms: _1532  and  _1533
REMARK  722  A    between atoms: _1536  and  _1537
REMARK  723  A    between atoms: _1537  and  _1538
REMARK  724  A    between atoms: _1537  and  _1540
REMARK  725  A    between atoms: _1543  and  _1544
REMARK  726  A    between atoms: _1544  and  _1545
REMARK  727  A    between atoms: _1544  and  _1547
REMARK  728  A    between atoms: _1547  and  _1548
REMARK  729  A    between atoms: _1548  and  _1549
REMARK  730  A    between atoms: _1549  and  _1550
REMARK  731  A    between atoms: _1552  and  _1553
REMARK  732  A    between atoms: _1553  and  _1554
REMARK  733  A    between atoms: _1553  and  _1556
REMARK  734  A    between atoms: _1556  and  _1557
REMARK  735  A    between atoms: _1557  and  _1558
REMARK  736  A    between atoms: _1558  and  _1559
REMARK  737  A    between atoms: _1561  and  _1562
REMARK  738  A    between atoms: _1562  and  _1563
REMARK  739  A    between atoms: _1562  and  _1565
REMARK  740  A    between atoms: _1565  and  _1566
REMARK  741  A    between atoms: _1571  and  _1572
REMARK  742  A    between atoms: _1572  and  _1573
REMARK  743  A    between atoms: _1572  and  _1575
REMARK  744  A    between atoms: _1577  and  _1578
REMARK  745  A    between atoms: _1578  and  _1579
REMARK  746  A    between atoms: _1578  and  _1581
REMARK  747  A    between atoms: _1581  and  _1582
REMARK  748  A    between atoms: _1582  and  _1583
REMARK  749  A    between atoms: _1586  and  _1587
REMARK  750  A    between atoms: _1587  and  _1588
REMARK  751  A    between atoms: _1587  and  _1590
REMARK  752  A    between atoms: _1590  and  _1591
REMARK  753  A    between atoms: _1597  and  _1598
REMARK  754  A    between atoms: _1598  and  _1599
REMARK  755  A    between atoms: _1598  and  _1601
REMARK  756  A    between atoms: _1601  and  _1602
REMARK  757  A    between atoms: _1605  and  _1606
REMARK  758  A    between atoms: _1606  and  _1607
REMARK  759  A    between atoms: _1609  and  _1610
REMARK  760  A    between atoms: _1610  and  _1611
REMARK  761  A    between atoms: _1610  and  _1613
REMARK  762  A    between atoms: _1613  and  _1614
REMARK  763  A    between atoms: _1622  and  _1623
REMARK  764  A    between atoms: _1628  and  _1629
REMARK  765  A    between atoms: _1629  and  _1630
REMARK  766  A    between atoms: _1629  and  _1632
REMARK  767  A    between atoms: _1632  and  _1633
REMARK  768  A    between atoms: _1636  and  _1637
REMARK  769  A    between atoms: _1637  and  _1638
REMARK  770  A    between atoms: _1637  and  _1640
REMARK  771  A    between atoms: _1643  and  _1644
REMARK  772  A    between atoms: _1644  and  _1645
REMARK  773  A    between atoms: _1644  and  _1647
REMARK  774  A    between atoms: _1647  and  _1648
REMARK  775  A    between atoms: _1651  and  _1652
REMARK  776  A    between atoms: _1652  and  _1653
REMARK  777  A    between atoms: _1652  and  _1655
REMARK  778  A    between atoms: _1655  and  _1656
REMARK  779  A    between atoms: _1662  and  _1663
REMARK  780  A    between atoms: _1663  and  _1664
REMARK  781  A    between atoms: _1663  and  _1666
REMARK  782  A    between atoms: _1669  and  _1670
REMARK  783  A    between atoms: _1670  and  _1671
REMARK  784  A    between atoms: _1670  and  _1673
REMARK  785  A    between atoms: _1673  and  _1674
REMARK  786  A    between atoms: _1674  and  _1675
REMARK                            x       y       z     vdW  Elec       q    Type
REMARK                         _______ _______ _______ _____ _____    ______ ____
ROOT
ATOM      1  C   UNL     1       9.123   9.594  31.015  0.00  0.00    +0.177 C 
ENDROOT
BRANCH   1   2
ATOM      2  C   UNL     1      10.052   9.533  32.178  0.00  0.00    +0.270 C 
ATOM      3  N   UNL     1       9.551   9.920  33.334  0.00  0.00    -0.087 NA
ATOM      4  O   UNL     1      11.196   9.099  32.055  0.00  0.00    -0.271 OA
ENDBRANCH   1   2
BRANCH   1   5
ATOM      5  C   UNL     1       9.832   8.517  30.793  0.00  0.00    +0.270 C 
ATOM      6  N   UNL     1       9.580   7.396  31.436  0.00  0.00    -0.087 NA
ATOM      7  O   UNL     1      10.775   8.633  30.001  0.00  0.00    -0.271 OA
ENDBRANCH   1   5
TORSDOF 2
REMARK  Name = /Users/mlugowska/PhD/ML_residence_time_prediction/protein_files/5J64_protein.pdb
REMARK  786 active torsions:
REMARK  status: ('A' for Active; 'I' for Inactive)
REMARK    1  A    between atoms: _2  and  _3
REMARK    2  A    between atoms: _2  and  _5
REMARK    3  A    between atoms: _5  and  _6
REMARK    4  A    between atoms: _6  and  _7
REMARK    5  A    between atoms: _10  and  _11
REMARK    6  A    between atoms: _11  and  _12
REMARK    7  A    between atoms: _11  and  _14
REMARK    8  A    between atoms: _17  and  _18
REMARK    9  A    between atoms: _18  and  _19
REMARK   10  A    between atoms: _18  and  _21
REMARK   11  A    between atoms: _21  and  _22
REMARK   12  A    between atoms: _22  and  _23
REMARK   13  A    between atoms: _26  and  _27
REMARK   14  A    between atoms: _27  and  _28
REMARK   15  A    between atoms: _27  and  _30
REMARK   16  A    between atoms: _33  and  _34
REMARK   17  A    between atoms: _34  and  _35
REMARK   18  A    between atoms: _34  and  _37
REMARK   19  A    between atoms: _37  and  _38
REMARK   20  A    between atoms: _44  and  _45
REMARK   21  A    between atoms: _45  and  _46
REMARK   22  A    between atoms: _49  and  _50
REMARK   23  A    between atoms: _50  and  _51
REMARK   24  A    between atoms: _50  and  _53
REMARK   25  A    between atoms: _53  and  _54
REMARK   26  A    between atoms: _60  and  _61
REMARK   27  A    between atoms: _61  and  _62
REMARK   28  A    between atoms: _61  and  _64
REMARK   29  A    between atoms: _64  and  _65
REMARK   30  A    between atoms: _65  and  _66
REMARK   31  A    between atoms: _69  and  _70
REMARK   32  A    between atoms: _70  and  _71
REMARK   33  A    between atoms: _74  and  _75
REMARK   34  A    between atoms: _75  and  _76
REMARK   35  A    between atoms: _75  and  _78
REMARK   36  A    between atoms: _78  and  _79
REMARK   37  A    between atoms: _79  and  _80
REMARK   38  A    between atoms: _83  and  _84
REMARK   39  A    between atoms: _84  and  _85
REMARK   40  A    between atoms: _84  and  _87
REMARK   41  A    between atoms: _87  and  _88
REMARK   42  A    between atoms: _91  and  _92
REMARK   43  A    between atoms: _92  and  _93
REMARK   44  A    between atoms: _96  and  _97
REMARK   45  A    between atoms: _97  and  _98
REMARK   46  A    between atoms: _97  and  _100
REMARK   47  A    between atoms: _100  and  _101
REMARK   48  A    between atoms: _101  and  _102
REMARK   49  A    between atoms: _105  and  _106
REMARK   50  A    between atoms: _106  and  _107
REMARK   51  A    between atoms: _106  and  _109
REMARK   52  A    between atoms: _109  and  _110
REMARK   53  A    between atoms: _113  and  _114
REMARK   54  A    between atoms: _114  and  _115
REMARK   55  A    between atoms: _114  and  _117
REMARK   56  A    between atoms: _117  and  _118
REMARK   57  A    between atoms: _118  and  _119
REMARK   58  A    between atoms: _121  and  _122
REMARK   59  A    between atoms: _122  and  _123
REMARK   60  A    between atoms: _122  and  _125
REMARK   61  A    between atoms: _127  and  _128
REMARK   62  A    between atoms: _128  and  _129
REMARK   63  A    between atoms: _128  and  _131
REMARK   64  A    between atoms: _131  and  _132
REMARK   65  A    between atoms: _135  and  _136
REMARK   66  A    between atoms: _136  and  _137
REMARK   67  A    between atoms: _136  and  _139
REMARK   68  A    between atoms: _139  and  _140
REMARK   69  A    between atoms: _143  and  _144
REMARK   70  A    between atoms: _144  and  _145
REMARK   71  A    between atoms: _144  and  _147
REMARK   72  A    between atoms: _147  and  _148
REMARK   73  A    between atoms: _151  and  _152
REMARK   74  A    between atoms: _152  and  _153
REMARK   75  A    between atoms: _152  and  _155
REMARK   76  A    between atoms: _155  and  _156
REMARK   77  A    between atoms: _159  and  _160
REMARK   78  A    between atoms: _160  and  _161
REMARK   79  A    between atoms: _160  and  _163
REMARK   80  A    between atoms: _166  and  _167
REMARK   81  A    between atoms: _167  and  _170
REMARK   82  A    between atoms: _170  and  _171
REMARK   83  A    between atoms: _181  and  _183
REMARK   84  A    between atoms: _183  and  _184
REMARK   85  A    between atoms: _189  and  _194
REMARK   86  A    between atoms: _192  and  _195
REMARK   87  A    between atoms: _193  and  _194
REMARK   88  A    between atoms: _195  and  _196
REMARK   89  A    between atoms: _201  and  _202
REMARK   90  A    between atoms: _202  and  _203
REMARK   91  A    between atoms: _202  and  _205
REMARK   92  A    between atoms: _207  and  _208
REMARK   93  A    between atoms: _208  and  _209
REMARK   94  A    between atoms: _208  and  _211
REMARK   95  A    between atoms: _211  and  _212
REMARK   96  A    between atoms: _215  and  _216
REMARK   97  A    between atoms: _216  and  _217
REMARK   98  A    between atoms: _216  and  _219
REMARK   99  A    between atoms: _219  and  _220
REMARK  100  A    between atoms: _220  and  _221
REMARK  101  A    between atoms: _221  and  _222
REMARK  102  A    between atoms: _224  and  _225
REMARK  103  A    between atoms: _225  and  _226
REMARK  104  A    between atoms: _225  and  _228
REMARK  105  A    between atoms: _228  and  _229
REMARK  106  A    between atoms: _229  and  _230
REMARK  107  A    between atoms: _233  and  _234
REMARK  108  A    between atoms: _234  and  _235
REMARK  109  A    between atoms: _234  and  _237
REMARK  110  A    between atoms: _237  and  _238
REMARK  111  A    between atoms: _241  and  _242
REMARK  112  A    between atoms: _242  and  _243
REMARK  113  A    between atoms: _242  and  _245
REMARK  114  A    between atoms: _245  and  _246
REMARK  115  A    between atoms: _252  and  _253
REMARK  116  A    between atoms: _253  and  _254
REMARK  117  A    between atoms: _253  and  _256
REMARK  118  A    between atoms: _256  and  _257
REMARK  119  A    between atoms: _260  and  _261
REMARK  120  A    between atoms: _261  and  _262
REMARK  121  A    between atoms: _261  and  _264
REMARK  122  A    between atoms: _264  and  _265
REMARK  123  A    between atoms: _265  and  _266
REMARK  124  A    between atoms: _266  and  _267
REMARK  125  A    between atoms: _271  and  _272
REMARK  126  A    between atoms: _272  and  _273
REMARK  127  A    between atoms: _272  and  _275
REMARK  128  A    between atoms: _275  and  _276
REMARK  129  A    between atoms: _276  and  _277
REMARK  130  A    between atoms: _280  and  _281
REMARK  131  A    between atoms: _281  and  _282
REMARK  132  A    between atoms: _281  and  _284
REMARK  133  A    between atoms: _284  and  _285
REMARK  134  A    between atoms: _288  and  _289
REMARK  135  A    between atoms: _289  and  _292
REMARK  136  A    between atoms: _292  and  _293
REMARK  137  A    between atoms: _309  and  _310
REMARK  138  A    between atoms: _309  and  _312
REMARK  139  A    between atoms: _312  and  _313
REMARK  140  A    between atoms: _316  and  _317
REMARK  141  A    between atoms: _317  and  _318
REMARK  142  A    between atoms: _317  and  _320
REMARK  143  A    between atoms: _322  and  _323
REMARK  144  A    between atoms: _323  and  _324
REMARK  145  A    between atoms: _323  and  _326
REMARK  146  A    between atoms: _328  and  _329
REMARK  147  A    between atoms: _329  and  _330
REMARK  148  A    between atoms: _329  and  _332
REMARK  149  A    between atoms: _332  and  _333
REMARK  150  A    between atoms: _336  and  _337
REMARK  151  A    between atoms: _337  and  _338
REMARK  152  A    between atoms: _341  and  _342
REMARK  153  A    between atoms: _342  and  _343
REMARK  154  A    between atoms: _342  and  _345
REMARK  155  A    between atoms: _345  and  _346
REMARK  156  A    between atoms: _349  and  _350
REMARK  157  A    between atoms: _350  and  _351
REMARK  158  A    between atoms: _350  and  _353
REMARK  159  A    between atoms: _353  and  _354
REMARK  160  A    between atoms: _357  and  _358
REMARK  161  A    between atoms: _358  and  _359
REMARK  162  A    between atoms: _358  and  _361
REMARK  163  A    between atoms: _361  and  _362
REMARK  164  A    between atoms: _362  and  _363
REMARK  165  A    between atoms: _363  and  _364
REMARK  166  A    between atoms: _366  and  _367
REMARK  167  A    between atoms: _367  and  _368
REMARK  168  A    between atoms: _367  and  _370
REMARK  169  A    between atoms: _370  and  _371
REMARK  170  A    between atoms: _374  and  _375
REMARK  171  A    between atoms: _375  and  _376
REMARK  172  A    between atoms: _375  and  _378
REMARK  173  A    between atoms: _378  and  _379
REMARK  174  A    between atoms: _379  and  _380
REMARK  175  A    between atoms: _380  and  _381
REMARK  176  A    between atoms: _385  and  _386
REMARK  177  A    between atoms: _386  and  _387
REMARK  178  A    between atoms: _386  and  _389
REMARK  179  A    between atoms: _389  and  _390
REMARK  180  A    between atoms: _397  and  _398
REMARK  181  A    between atoms: _398  and  _399
REMARK  182  A    between atoms: _398  and  _401
REMARK  183  A    between atoms: _401  and  _402
REMARK  184  A    between atoms: _402  and  _403
REMARK  185  A    between atoms: _406  and  _407
REMARK  186  A    between atoms: _407  and  _408
REMARK  187  A    between atoms: _407  and  _410
REMARK  188  A    between atoms: _412  and  _413
REMARK  189  A    between atoms: _413  and  _414
REMARK  190  A    between atoms: _413  and  _416
REMARK  191  A    between atoms: _416  and  _417
REMARK  192  A    between atoms: _420  and  _421
REMARK  193  A    between atoms: _421  and  _422
REMARK  194  A    between atoms: _421  and  _424
REMARK  195  A    between atoms: _427  and  _428
REMARK  196  A    between atoms: _428  and  _429
REMARK  197  A    between atoms: _428  and  _431
REMARK  198  A    between atoms: _431  and  _432
REMARK  199  A    between atoms: _436  and  _437
REMARK  200  A    between atoms: _442  and  _443
REMARK  201  A    between atoms: _443  and  _444
REMARK  202  A    between atoms: _443  and  _446
REMARK  203  A    between atoms: _448  and  _449
REMARK  204  A    between atoms: _449  and  _450
REMARK  205  A    between atoms: _449  and  _452
REMARK  206  A    between atoms: _452  and  _453
REMARK  207  A    between atoms: _453  and  _454
REMARK  208  A    between atoms: _454  and  _455
REMARK  209  A    between atoms: _457  and  _458
REMARK  210  A    between atoms: _458  and  _459
REMARK  211  A    between atoms: _458  and  _461
REMARK  212  A    between atoms: _461  and  _462
REMARK  213  A    between atoms: _465  and  _466
REMARK  214  A    between atoms: _466  and  _467
REMARK  215  A    between atoms: _466  and  _469
REMARK  216  A    between atoms: _469  and  _470
REMARK  217  A    between atoms: _473  and  _474
REMARK  218  A    between atoms: _474  and  _475
REMARK  219  A    between atoms: _474  and  _477
REMARK  220  A    between atoms: _479  and  _480
REMARK  221  A    between atoms: _480  and  _481
REMARK  222  A    between atoms: _483  and  _484
REMARK  223  A    between atoms: _484  and  _485
REMARK  224  A    between atoms: _484  and  _487
REMARK  225  A    between atoms: _487  and  _488
REMARK  226  A    between atoms: _488  and  _489
REMARK  227  A    between atoms: _489  and  _490
REMARK  228  A    between atoms: _492  and  _493
REMARK  229  A    between atoms: _493  and  _494
REMARK  230  A    between atoms: _493  and  _496
REMARK  231  A    between atoms: _496  and  _497
REMARK  232  A    between atoms: _497  and  _498
REMARK  233  A    between atoms: _501  and  _502
REMARK  234  A    between atoms: _502  and  _503
REMARK  235  A    between atoms: _502  and  _505
REMARK  236  A    between atoms: _505  and  _506
REMARK  237  A    between atoms: _509  and  _510
REMARK  238  A    between atoms: _510  and  _511
REMARK  239  A    between atoms: _510  and  _513
REMARK  240  A    between atoms: _513  and  _514
REMARK  241  A    between atoms: _519  and  _520
REMARK  242  A    between atoms: _520  and  _521
REMARK  243  A    between atoms: _520  and  _523
REMARK  244  A    between atoms: _523  and  _524
REMARK  245  A    between atoms: _527  and  _528
REMARK  246  A    between atoms: _528  and  _529
REMARK  247  A    between atoms: _528  and  _531
REMARK  248  A    between atoms: _531  and  _532
REMARK  249  A    between atoms: _535  and  _536
REMARK  250  A    between atoms: _536  and  _537
REMARK  251  A    between atoms: _536  and  _539
REMARK  252  A    between atoms: _539  and  _540
REMARK  253  A    between atoms: _543  and  _544
REMARK  254  A    between atoms: _544  and  _545
REMARK  255  A    between atoms: _544  and  _547
REMARK  256  A    between atoms: _547  and  _548
REMARK  257  A    between atoms: _552  and  _553
REMARK  258  A    between atoms: _558  and  _559
REMARK  259  A    between atoms: _559  and  _560
REMARK  260  A    between atoms: _559  and  _562
REMARK  261  A    between atoms: _562  and  _563
REMARK  262  A    between atoms: _566  and  _567
REMARK  263  A    between atoms: _567  and  _568
REMARK  264  A    between atoms: _567  and  _570
REMARK  265  A    between atoms: _570  and  _571
REMARK  266  A    between atoms: _571  and  _572
REMARK  267  A    between atoms: _572  and  _573
REMARK  268  A    between atoms: _575  and  _576
REMARK  269  A    between atoms: _576  and  _577
REMARK  270  A    between atoms: _576  and  _579
REMARK  271  A    between atoms: _579  and  _580
REMARK  272  A    between atoms: _580  and  _581
REMARK  273  A    between atoms: _584  and  _585
REMARK  274  A    between atoms: _585  and  _586
REMARK  275  A    between atoms: _585  and  _588
REMARK  276  A    between atoms: _588  and  _589
REMARK  277  A    between atoms: _592  and  _593
REMARK  278  A    between atoms: _593  and  _594
REMARK  279  A    between atoms: _593  and  _596
REMARK  280  A    between atoms: _596  and  _597
REMARK  281  A    between atoms: _597  and  _598
REMARK  282  A    between atoms: _598  and  _599
REMARK  283  A    between atoms: _603  and  _604
REMARK  284  A    between atoms: _604  and  _605
REMARK  285  A    between atoms: _604  and  _607
REMARK  286  A    between atoms: _610  and  _611
REMARK  287  A    between atoms: _611  and  _612
REMARK  288  A    between atoms: _611  and  _614
REMARK  289  A    between atoms: _614  and  _615
REMARK  290  A    between atoms: _618  and  _619
REMARK  291  A    between atoms: _619  and  _620
REMARK  292  A    between atoms: _619  and  _622
REMARK  293  A    between atoms: _625  and  _626
REMARK  294  A    between atoms: _626  and  _627
REMARK  295  A    between atoms: _626  and  _629
REMARK  296  A    between atoms: _629  and  _630
REMARK  297  A    between atoms: _633  and  _634
REMARK  298  A    between atoms: _634  and  _635
REMARK  299  A    between atoms: _634  and  _637
REMARK  300  A    between atoms: _640  and  _641
REMARK  301  A    between atoms: _641  and  _642
REMARK  302  A    between atoms: _641  and  _644
REMARK  303  A    between atoms: _644  and  _645
REMARK  304  A    between atoms: _648  and  _649
REMARK  305  A    between atoms: _649  and  _650
REMARK  306  A    between atoms: _649  and  _652
REMARK  307  A    between atoms: _655  and  _656
REMARK  308  A    between atoms: _656  and  _657
REMARK  309  A    between atoms: _659  and  _660
REMARK  310  A    between atoms: _660  and  _661
REMARK  311  A    between atoms: _660  and  _663
REMARK  312  A    between atoms: _663  and  _664
REMARK  313  A    between atoms: _667  and  _668
REMARK  314  A    between atoms: _668  and  _669
REMARK  315  A    between atoms: _671  and  _672
REMARK  316  A    between atoms: _672  and  _673
REMARK  317  A    between atoms: _672  and  _675
REMARK  318  A    between atoms: _675  and  _676
REMARK  319  A    between atoms: _676  and  _677
REMARK  320  A    between atoms: _679  and  _680
REMARK  321  A    between atoms: _680  and  _681
REMARK  322  A    between atoms: _680  and  _683
REMARK  323  A    between atoms: _686  and  _687
REMARK  324  A    between atoms: _687  and  _688
REMARK  325  A    between atoms: _687  and  _690
REMARK  326  A    between atoms: _690  and  _691
REMARK  327  A    between atoms: _691  and  _692
REMARK  328  A    between atoms: _692  and  _693
REMARK  329  A    between atoms: _695  and  _696
REMARK  330  A    between atoms: _696  and  _697
REMARK  331  A    between atoms: _700  and  _701
REMARK  332  A    between atoms: _701  and  _702
REMARK  333  A    between atoms: _701  and  _704
REMARK  334  A    between atoms: _704  and  _705
REMARK  335  A    between atoms: _708  and  _709
REMARK  336  A    between atoms: _709  and  _710
REMARK  337  A    between atoms: _709  and  _712
REMARK  338  A    between atoms: _712  and  _713
REMARK  339  A    between atoms: _716  and  _717
REMARK  340  A    between atoms: _717  and  _720
REMARK  341  A    between atoms: _720  and  _721
REMARK  342  A    between atoms: _733  and  _734
REMARK  343  A    between atoms: _733  and  _735
REMARK  344  A    between atoms: _741  and  _744
REMARK  345  A    between atoms: _744  and  _745
REMARK  346  A    between atoms: _758  and  _759
REMARK  347  A    between atoms: _758  and  _761
REMARK  348  A    between atoms: _759  and  _760
REMARK  349  A    between atoms: _765  and  _766
REMARK  350  A    between atoms: _768  and  _769
REMARK  351  A    between atoms: _769  and  _770
REMARK  352  A    between atoms: _769  and  _772
REMARK  353  A    between atoms: _775  and  _776
REMARK  354  A    between atoms: _776  and  _777
REMARK  355  A    between atoms: _776  and  _779
REMARK  356  A    between atoms: _779  and  _780
REMARK  357  A    between atoms: _783  and  _784
REMARK  358  A    between atoms: _784  and  _785
REMARK  359  A    between atoms: _788  and  _789
REMARK  360  A    between atoms: _789  and  _790
REMARK  361  A    between atoms: _789  and  _792
REMARK  362  A    between atoms: _792  and  _793
REMARK  363  A    between atoms: _793  and  _794
REMARK  364  A    between atoms: _794  and  _795
REMARK  365  A    between atoms: _797  and  _798
REMARK  366  A    between atoms: _798  and  _799
REMARK  367  A    between atoms: _798  and  _801
REMARK  368  A    between atoms: _803  and  _804
REMARK  369  A    between atoms: _804  and  _805
REMARK  370  A    between atoms: _807  and  _808
REMARK  371  A    between atoms: _808  and  _809
REMARK  372  A    between atoms: _808  and  _811
REMARK  373  A    between atoms: _814  and  _815
REMARK  374  A    between atoms: _815  and  _816
REMARK  375  A    between atoms: _815  and  _818
REMARK  376  A    between atoms: _818  and  _819
REMARK  377  A    between atoms: _819  and  _820
REMARK  378  A    between atoms: _820  and  _821
REMARK  379  A    between atoms: _823  and  _824
REMARK  380  A    between atoms: _824  and  _825
REMARK  381  A    between atoms: _828  and  _829
REMARK  382  A    between atoms: _829  and  _830
REMARK  383  A    between atoms: _829  and  _832
REMARK  384  A    between atoms: _832  and  _833
REMARK  385  A    between atoms: _839  and  _840
REMARK  386  A    between atoms: _840  and  _841
REMARK  387  A    between atoms: _840  and  _843
REMARK  388  A    between atoms: _843  and  _844
REMARK  389  A    between atoms: _844  and  _845
REMARK  390  A    between atoms: _847  and  _848
REMARK  391  A    between atoms: _848  and  _849
REMARK  392  A    between atoms: _848  and  _851
REMARK  393  A    between atoms: _851  and  _852
REMARK  394  A    between atoms: _852  and  _853
REMARK  395  A    between atoms: _856  and  _857
REMARK  396  A    between atoms: _857  and  _858
REMARK  397  A    between atoms: _861  and  _862
REMARK  398  A    between atoms: _862  and  _863
REMARK  399  A    between atoms: _862  and  _865
REMARK  400  A    between atoms: _865  and  _866
REMARK  401  A    between atoms: _869  and  _870
REMARK  402  A    between atoms: _870  and  _871
REMARK  403  A    between atoms: _870  and  _873
REMARK  404  A    between atoms: _873  and  _874
REMARK  405  A    between atoms: _874  and  _875
REMARK  406  A    between atoms: _878  and  _879
REMARK  407  A    between atoms: _879  and  _880
REMARK  408  A    between atoms: _883  and  _884
REMARK  409  A    between atoms: _884  and  _885
REMARK  410  A    between atoms: _887  and  _888
REMARK  411  A    between atoms: _888  and  _889
REMARK  412  A    between atoms: _892  and  _893
REMARK  413  A    between atoms: _893  and  _894
REMARK  414  A    between atoms: _893  and  _896
REMARK  415  A    between atoms: _896  and  _897
REMARK  416  A    between atoms: _900  and  _901
REMARK  417  A    between atoms: _901  and  _902
REMARK  418  A    between atoms: _901  and  _904
REMARK  419  A    between atoms: _904  and  _905
REMARK  420  A    between atoms: _908  and  _909
REMARK  421  A    between atoms: _909  and  _910
REMARK  422  A    between atoms: _909  and  _912
REMARK  423  A    between atoms: _914  and  _915
REMARK  424  A    between atoms: _915  and  _916
REMARK  425  A    between atoms: _915  and  _918
REMARK  426  A    between atoms: _918  and  _919
REMARK  427  A    between atoms: _919  and  _920
REMARK  428  A    between atoms: _922  and  _923
REMARK  429  A    between atoms: _923  and  _924
REMARK  430  A    between atoms: _923  and  _926
REMARK  431  A    between atoms: _926  and  _927
REMARK  432  A    between atoms: _930  and  _931
REMARK  433  A    between atoms: _931  and  _932
REMARK  434  A    between atoms: _934  and  _935
REMARK  435  A    between atoms: _935  and  _936
REMARK  436  A    between atoms: _935  and  _938
REMARK  437  A    between atoms: _938  and  _939
REMARK  438  A    between atoms: _939  and  _940
REMARK  439  A    between atoms: _943  and  _944
REMARK  440  A    between atoms: _944  and  _945
REMARK  441  A    between atoms: _944  and  _947
REMARK  442  A    between atoms: _947  and  _948
REMARK  443  A    between atoms: _954  and  _955
REMARK  444  A    between atoms: _955  and  _956
REMARK  445  A    between atoms: _958  and  _959
REMARK  446  A    between atoms: _959  and  _960
REMARK  447  A    between atoms: _959  and  _962
REMARK  448  A    between atoms: _965  and  _966
REMARK  449  A    between atoms: _966  and  _967
REMARK  450  A    between atoms: _969  and  _970
REMARK  451  A    between atoms: _970  and  _971
REMARK  452  A    between atoms: _970  and  _973
REMARK  453  A    between atoms: _973  and  _974
REMARK  454  A    between atoms: _980  and  _981
REMARK  455  A    between atoms: _981  and  _982
REMARK  456  A    between atoms: _981  and  _984
REMARK  457  A    between atoms: _984  and  _985
REMARK  458  A    between atoms: _992  and  _993
REMARK  459  A    between atoms: _993  and  _994
REMARK  460  A    between atoms: _993  and  _996
REMARK  461  A    between atoms: _998  and  _999
REMARK  462  A    between atoms: _999  and  _1000
REMARK  463  A    between atoms: _1003  and  _1004
REMARK  464  A    between atoms: _1004  and  _1005
REMARK  465  A    between atoms: _1004  and  _1007
REMARK  466  A    between atoms: _1007  and  _1008
REMARK  467  A    between atoms: _1015  and  _1016
REMARK  468  A    between atoms: _1016  and  _1017
REMARK  469  A    between atoms: _1016  and  _1019
REMARK  470  A    between atoms: _1019  and  _1020
REMARK  471  A    between atoms: _1023  and  _1024
REMARK  472  A    between atoms: _1024  and  _1025
REMARK  473  A    between atoms: _1024  and  _1027
REMARK  474  A    between atoms: _1030  and  _1031
REMARK  475  A    between atoms: _1031  and  _1032
REMARK  476  A    between atoms: _1035  and  _1036
REMARK  477  A    between atoms: _1036  and  _1037
REMARK  478  A    between atoms: _1036  and  _1039
REMARK  479  A    between atoms: _1039  and  _1040
REMARK  480  A    between atoms: _1040  and  _1041
REMARK  481  A    between atoms: _1044  and  _1045
REMARK  482  A    between atoms: _1045  and  _1046
REMARK  483  A    between atoms: _1045  and  _1048
REMARK  484  A    between atoms: _1048  and  _1049
REMARK  485  A    between atoms: _1049  and  _1050
REMARK  486  A    between atoms: _1050  and  _1051
REMARK  487  A    between atoms: _1053  and  _1054
REMARK  488  A    between atoms: _1054  and  _1055
REMARK  489  A    between atoms: _1054  and  _1057
REMARK  490  A    between atoms: _1060  and  _1061
REMARK  491  A    between atoms: _1061  and  _1062
REMARK  492  A    between atoms: _1061  and  _1064
REMARK  493  A    between atoms: _1067  and  _1068
REMARK  494  A    between atoms: _1068  and  _1069
REMARK  495  A    between atoms: _1068  and  _1071
REMARK  496  A    between atoms: _1074  and  _1075
REMARK  497  A    between atoms: _1075  and  _1076
REMARK  498  A    between atoms: _1075  and  _1078
REMARK  499  A    between atoms: _1078  and  _1079
REMARK  500  A    between atoms: _1082  and  _1083
REMARK  501  A    between atoms: _1083  and  _1084
REMARK  502  A    between atoms: _1083  and  _1086
REMARK  503  A    between atoms: _1089  and  _1090
REMARK  504  A    between atoms: _1090  and  _1091
REMARK  505  A    between atoms: _1090  and  _1093
REMARK  506  A    between atoms: _1093  and  _1094
REMARK  507  A    between atoms: _1094  and  _1095
REMARK  508  A    between atoms: _1095  and  _1096
REMARK  509  A    between atoms: _1098  and  _1099
REMARK  510  A    between atoms: _1099  and  _1100
REMARK  511  A    between atoms: _1099  and  _1102
REMARK  512  A    between atoms: _1102  and  _1103
REMARK  513  A    between atoms: _1108  and  _1109
REMARK  514  A    between atoms: _1109  and  _1110
REMARK  515  A    between atoms: _1109  and  _1112
REMARK  516  A    between atoms: _1112  and  _1113
REMARK  517  A    between atoms: _1116  and  _1117
REMARK  518  A    between atoms: _1117  and  _1118
REMARK  519  A    between atoms: _1117  and  _1120
REMARK  520  A    between atoms: _1120  and  _1121
REMARK  521  A    between atoms: _1124  and  _1125
REMARK  522  A    between atoms: _1125  and  _1126
REMARK  523  A    between atoms: _1125  and  _1128
REMARK  524  A    between atoms: _1128  and  _1129
REMARK  525  A    between atoms: _1132  and  _1133
REMARK  526  A    between atoms: _1133  and  _1134
REMARK  527  A    between atoms: _1133  and  _1136
REMARK  528  A    between atoms: _1136  and  _1137
REMARK  529  A    between atoms: _1137  and  _1138
REMARK  530  A    between atoms: _1141  and  _1142
REMARK  531  A    between atoms: _1142  and  _1143
REMARK  532  A    between atoms: _1142  and  _1145
REMARK  533  A    between atoms: _1145  and  _1146
REMARK  534  A    between atoms: _1146  and  _1147
REMARK  535  A    between atoms: _1150  and  _1151
REMARK  536  A    between atoms: _1151  and  _1152
REMARK  537  A    between atoms: _1151  and  _1154
REMARK  538  A    between atoms: _1154  and  _1155
REMARK  539  A    between atoms: _1162  and  _1163
REMARK  540  A    between atoms: _1163  and  _1164
REMARK  541  A    between atoms: _1167  and  _1168
REMARK  542  A    between atoms: _1168  and  _1169
REMARK  543  A    between atoms: _1168  and  _1171
REMARK  544  A    between atoms: _1171  and  _1172
REMARK  545  A    between atoms: _1181  and  _1182
REMARK  546  A    between atoms: _1182  and  _1183
REMARK  547  A    between atoms: _1182  and  _1185
REMARK  548  A    between atoms: _1185  and  _1186
REMARK  549  A    between atoms: _1186  and  _1187
REMARK  550  A    between atoms: _1190  and  _1191
REMARK  551  A    between atoms: _1191  and  _1192
REMARK  552  A    between atoms: _1191  and  _1194
REMARK  553  A    between atoms: _1196  and  _1197
REMARK  554  A    between atoms: _1197  and  _1198
REMARK  555  A    between atoms: _1197  and  _1200
REMARK  556  A    between atoms: _1202  and  _1203
REMARK  557  A    between atoms: _1203  and  _1204
REMARK  558  A    between atoms: _1207  and  _1208
REMARK  559  A    between atoms: _1208  and  _1209
REMARK  560  A    between atoms: _1211  and  _1212
REMARK  561  A    between atoms: _1212  and  _1213
REMARK  562  A    between atoms: _1215  and  _1216
REMARK  563  A    between atoms: _1216  and  _1217
REMARK  564  A    between atoms: _1216  and  _1219
REMARK  565  A    between atoms: _1221  and  _1222
REMARK  566  A    between atoms: _1222  and  _1223
REMARK  567  A    between atoms: _1222  and  _1225
REMARK  568  A    between atoms: _1225  and  _1226
REMARK  569  A    between atoms: _1232  and  _1233
REMARK  570  A    between atoms: _1233  and  _1234
REMARK  571  A    between atoms: _1233  and  _1236
REMARK  572  A    between atoms: _1239  and  _1240
REMARK  573  A    between atoms: _1240  and  _1241
REMARK  574  A    between atoms: _1240  and  _1243
REMARK  575  A    between atoms: _1247  and  _1249
REMARK  576  A    between atoms: _1247  and  _1252
REMARK  577  A    between atoms: _1251  and  _1252
REMARK  578  A    between atoms: _1251  and  _1254
REMARK  579  A    between atoms: _1253  and  _1254
REMARK  580  A    between atoms: _1253  and  _1256
REMARK  581  A    between atoms: _1254  and  _1255
REMARK  582  A    between atoms: _1255  and  _1257
REMARK  583  A    between atoms: _1256  and  _1258
REMARK  584  A    between atoms: _1265  and  _1266
REMARK  585  A    between atoms: _1266  and  _1267
REMARK  586  A    between atoms: _1266  and  _1269
REMARK  587  A    between atoms: _1272  and  _1273
REMARK  588  A    between atoms: _1273  and  _1274
REMARK  589  A    between atoms: _1273  and  _1276
REMARK  590  A    between atoms: _1276  and  _1277
REMARK  591  A    between atoms: _1280  and  _1281
REMARK  592  A    between atoms: _1281  and  _1282
REMARK  593  A    between atoms: _1281  and  _1284
REMARK  594  A    between atoms: _1287  and  _1288
REMARK  595  A    between atoms: _1288  and  _1289
REMARK  596  A    between atoms: _1291  and  _1292
REMARK  597  A    between atoms: _1292  and  _1293
REMARK  598  A    between atoms: _1292  and  _1295
REMARK  599  A    between atoms: _1295  and  _1296
REMARK  600  A    between atoms: _1296  and  _1297
REMARK  601  A    between atoms: _1301  and  _1302
REMARK  602  A    between atoms: _1307  and  _1308
REMARK  603  A    between atoms: _1308  and  _1309
REMARK  604  A    between atoms: _1308  and  _1311
REMARK  605  A    between atoms: _1311  and  _1312
REMARK  606  A    between atoms: _1312  and  _1313
REMARK  607  A    between atoms: _1315  and  _1316
REMARK  608  A    between atoms: _1316  and  _1317
REMARK  609  A    between atoms: _1319  and  _1320
REMARK  610  A    between atoms: _1320  and  _1321
REMARK  611  A    between atoms: _1320  and  _1323
REMARK  612  A    between atoms: _1323  and  _1324
REMARK  613  A    between atoms: _1324  and  _1325
REMARK  614  A    between atoms: _1325  and  _1326
REMARK  615  A    between atoms: _1330  and  _1331
REMARK  616  A    between atoms: _1331  and  _1332
REMARK  617  A    between atoms: _1334  and  _1335
REMARK  618  A    between atoms: _1335  and  _1336
REMARK  619  A    between atoms: _1335  and  _1338
REMARK  620  A    between atoms: _1341  and  _1342
REMARK  621  A    between atoms: _1342  and  _1343
REMARK  622  A    between atoms: _1342  and  _1345
REMARK  623  A    between atoms: _1345  and  _1346
REMARK  624  A    between atoms: _1346  and  _1347
REMARK  625  A    between atoms: _1347  and  _1348
REMARK  626  A    between atoms: _1350  and  _1351
REMARK  627  A    between atoms: _1351  and  _1352
REMARK  628  A    between atoms: _1351  and  _1354
REMARK  629  A    between atoms: _1357  and  _1358
REMARK  630  A    between atoms: _1358  and  _1359
REMARK  631  A    between atoms: _1358  and  _1361
REMARK  632  A    between atoms: _1361  and  _1362
REMARK  633  A    between atoms: _1365  and  _1366
REMARK  634  A    between atoms: _1366  and  _1367
REMARK  635  A    between atoms: _1366  and  _1369
REMARK  636  A    between atoms: _1369  and  _1370
REMARK  637  A    between atoms: _1373  and  _1374
REMARK  638  A    between atoms: _1374  and  _1375
REMARK  639  A    between atoms: _1374  and  _1377
REMARK  640  A    between atoms: _1377  and  _1378
REMARK  641  A    between atoms: _1383  and  _1384
REMARK  642  A    between atoms: _1384  and  _1385
REMARK  643  A    between atoms: _1384  and  _1387
REMARK  644  A    between atoms: _1387  and  _1388
REMARK  645  A    between atoms: _1391  and  _1392
REMARK  646  A    between atoms: _1392  and  _1393
REMARK  647  A    between atoms: _1392  and  _1395
REMARK  648  A    between atoms: _1395  and  _1396
REMARK  649  A    between atoms: _1396  and  _1397
REMARK  650  A    between atoms: _1397  and  _1398
REMARK  651  A    between atoms: _1400  and  _1401
REMARK  652  A    between atoms: _1401  and  _1402
REMARK  653  A    between atoms: _1401  and  _1404
REMARK  654  A    between atoms: _1404  and  _1405
REMARK  655  A    between atoms: _1405  and  _1406
REMARK  656  A    between atoms: _1409  and  _1410
REMARK  657  A    between atoms: _1410  and  _1411
REMARK  658  A    between atoms: _1410  and  _1413
REMARK  659  A    between atoms: _1413  and  _1414
REMARK  660  A    between atoms: _1417  and  _1418
REMARK  661  A    between atoms: _1418  and  _1419
REMARK  662  A    between atoms: _1418  and  _1421
REMARK  663  A    between atoms: _1421  and  _1422
REMARK  664  A    between atoms: _1422  and  _1423
REMARK  665  A    between atoms: _1426  and  _1427
REMARK  666  A    between atoms: _1427  and  _1428
REMARK  667  A    between atoms: _1427  and  _1430
REMARK  668  A    between atoms: _1433  and  _1434
REMARK  669  A    between atoms: _1434  and  _1435
REMARK  670  A    between atoms: _1434  and  _1437
REMARK  671  A    between atoms: _1437  and  _1438
REMARK  672  A    between atoms: _1438  and  _1439
REMARK  673  A    between atoms: _1442  and  _1443
REMARK  674  A    between atoms: _1443  and  _1444
REMARK  675  A    between atoms: _1443  and  _1446
REMARK  676  A    between atoms: _1446  and  _1447
REMARK  677  A    between atoms: _1454  and  _1455
REMARK  678  A    between atoms: _1455  and  _1456
REMARK  679  A    between atoms: _1455  and  _1458
REMARK  680  A    between atoms: _1458  and  _1459
REMARK  681  A    between atoms: _1462  and  _1463
REMARK  682  A    between atoms: _1463  and  _1464
REMARK  683  A    between atoms: _1463  and  _1466
REMARK  684  A    between atoms: _1466  and  _1467
REMARK  685  A    between atoms: _1467  and  _1468
REMARK  686  A    between atoms: _1471  and  _1472
REMARK  687  A    between atoms: _1472  and  _1473
REMARK  688  A    between atoms: _1472  and  _1475
REMARK  689  A    between atoms: _1475  and  _1476
REMARK  690  A    between atoms: _1476  and  _1477
REMARK  691  A    between atoms: _1480  and  _1481
REMARK  692  A    between atoms: _1481  and  _1482
REMARK  693  A    between atoms: _1481  and  _1484
REMARK  694  A    between atoms: _1484  and  _1485
REMARK  695  A    between atoms: _1485  and  _1486
REMARK  696  A    between atoms: _1486  and  _1487
REMARK  697  A    between atoms: _1491  and  _1492
REMARK  698  A    between atoms: _1492  and  _1493
REMARK  699  A    between atoms: _1492  and  _1495
REMARK  700  A    between atoms: _1495  and  _1496
REMARK  701  A    between atoms: _1496  and  _1497
REMARK  702  A    between atoms: _1497  and  _1498
REMARK  703  A    between atoms: _1502  and  _1503
REMARK  704  A    between atoms: _1503  and  _1504
REMARK  705  A    between atoms: _1503  and  _1506
REMARK  706  A    between atoms: _1506  and  _1507
REMARK  707  A    between atoms: _1510  and  _1511
REMARK  708  A    between atoms: _1511  and  _1512
REMARK  709  A    between atoms: _1511  and  _1514
REMARK  710  A    between atoms: _1514  and  _1515
REMARK  711  A    between atoms: _1515  and  _1516
REMARK  712  A    between atoms: _1516  and  _1517
REMARK  713  A    between atoms: _1519  and  _1520
REMARK  714  A    between atoms: _1520  and  _1521
REMARK  715  A    between atoms: _1520  and  _1523
REMARK  716  A    between atoms: _1523  and  _1524
REMARK  717  A    between atoms: _1524  and  _1525
REMARK  718  A    between atoms: _1528  and  _1529
REMARK  719  A    between atoms: _1529  and  _1530
REMARK  720  A    between atoms: _1529  and  _1532
REMARK  721  A    between atoms: _1532  and  _1533
REMARK  722  A    between atoms: _1536  and  _1537
REMARK  723  A    between atoms: _1537  and  _1538
REMARK  724  A    between atoms: _1537  and  _1540
REMARK  725  A    between atoms: _1543  and  _1544
REMARK  726  A    between atoms: _1544  and  _1545
REMARK  727  A    between atoms: _1544  and  _1547
REMARK  728  A    between atoms: _1547  and  _1548
REMARK  729  A    between atoms: _1548  and  _1549
REMARK  730  A    between atoms: _1549  and  _1550
REMARK  731  A    between atoms: _1552  and  _1553
REMARK  732  A    between atoms: _1553  and  _1554
REMARK  733  A    between atoms: _1553  and  _1556
REMARK  734  A    between atoms: _1556  and  _1557
REMARK  735  A    between atoms: _1557  and  _1558
REMARK  736  A    between atoms: _1558  and  _1559
REMARK  737  A    between atoms: _1561  and  _1562
REMARK  738  A    between atoms: _1562  and  _1563
REMARK  739  A    between atoms: _1562  and  _1565
REMARK  740  A    between atoms: _1565  and  _1566
REMARK  741  A    between atoms: _1571  and  _1572
REMARK  742  A    between atoms: _1572  and  _1573
REMARK  743  A    between atoms: _1572  and  _1575
REMARK  744  A    between atoms: _1577  and  _1578
REMARK  745  A    between atoms: _1578  and  _1579
REMARK  746  A    between atoms: _1578  and  _1581
REMARK  747  A    between atoms: _1581  and  _1582
REMARK  748  A    between atoms: _1582  and  _1583
REMARK  749  A    between atoms: _1586  and  _1587
REMARK  750  A    between atoms: _1587  and  _1588
REMARK  751  A    between atoms: _1587  and  _1590
REMARK  752  A    between atoms: _1590  and  _1591
REMARK  753  A    between atoms: _1597  and  _1598
REMARK  754  A    between atoms: _1598  and  _1599
REMARK  755  A    between atoms: _1598  and  _1601
REMARK  756  A    between atoms: _1601  and  _1602
REMARK  757  A    between atoms: _1605  and  _1606
REMARK  758  A    between atoms: _1606  and  _1607
REMARK  759  A    between atoms: _1609  and  _1610
REMARK  760  A    between atoms: _1610  and  _1611
REMARK  761  A    between atoms: _1610  and  _1613
REMARK  762  A    between atoms: _1613  and  _1614
REMARK  763  A    between atoms: _1622  and  _1623
REMARK  764  A    between atoms: _1628  and  _1629
REMARK  765  A    between atoms: _1629  and  _1630
REMARK  766  A    between atoms: _1629  and  _1632
REMARK  767  A    between atoms: _1632  and  _1633
REMARK  768  A    between atoms: _1636  and  _1637
REMARK  769  A    between atoms: _1637  and  _1638
REMARK  770  A    between atoms: _1637  and  _1640
REMARK  771  A    between atoms: _1643  and  _1644
REMARK  772  A    between atoms: _1644  and  _1645
REMARK  773  A    between atoms: _1644  and  _1647
REMARK  774  A    between atoms: _1647  and  _1648
REMARK  775  A    between atoms: _1651  and  _1652
REMARK  776  A    between atoms: _1652  and  _1653
REMARK  777  A    between atoms: _1652  and  _1655
REMARK  778  A    between atoms: _1655  and  _1656
REMARK  779  A    between atoms: _1662  and  _1663
REMARK  780  A    between atoms: _1663  and  _1664
REMARK  781  A    between atoms: _1663  and  _1666
REMARK  782  A    between atoms: _1669  and  _1670
REMARK  783  A    between atoms: _1670  and  _1671
REMARK  784  A    between atoms: _1670  and  _1673
REMARK  785  A    between atoms: _1673  and  _1674
REMARK  786  A    between atoms: _1674  and  _1675
REMARK                            x       y       z     vdW  Elec       q    Type
REMARK                         _______ _______ _______ _____ _____    ______ ____
ROOT
ATOM      1  C   UNL     1       9.524  11.089  25.817  0.00  0.00    +0.109 C 
ENDROOT
BRANCH   1   2
ATOM      2  C   UNL     1      10.951  11.535  26.067  0.00  0.00    +0.262 C 
ATOM      3  O   UNL     1      11.827  10.738  26.438  0.00  0.00    -0.272 OA
ATOM      4  N   UNL     1      11.160  12.812  25.944  0.00  0.00    -0.088 NA
ENDBRANCH   1   2
BRANCH   1   6
ATOM      5  N   UNL     1       8.858  11.850  28.054  0.00  0.00    -0.131 NA
ATOM      6  C   UNL     1       8.514  11.909  26.649  0.00  0.00    +0.119 C 
ENDBRANCH   1   6
TORSDOF 2
REMARK  Name = /Users/mlugowska/PhD/ML_residence_time_prediction/protein_files/5J64_protein.pdb
REMARK  786 active torsions:
REMARK  status: ('A' for Active; 'I' for Inactive)
REMARK    1  A    between atoms: _2  and  _3
REMARK    2  A    between atoms: _2  and  _5
REMARK    3  A    between atoms: _5  and  _6
REMARK    4  A    between atoms: _6  and  _7
REMARK    5  A    between atoms: _10  and  _11
REMARK    6  A    between atoms: _11  and  _12
REMARK    7  A    between atoms: _11  and  _14
REMARK    8  A    between atoms: _17  and  _18
REMARK    9  A    between atoms: _18  and  _19
REMARK   10  A    between atoms: _18  and  _21
REMARK   11  A    between atoms: _21  and  _22
REMARK   12  A    between atoms: _22  and  _23
REMARK   13  A    between atoms: _26  and  _27
REMARK   14  A    between atoms: _27  and  _28
REMARK   15  A    between atoms: _27  and  _30
REMARK   16  A    between atoms: _33  and  _34
REMARK   17  A    between atoms: _34  and  _35
REMARK   18  A    between atoms: _34  and  _37
REMARK   19  A    between atoms: _37  and  _38
REMARK   20  A    between atoms: _44  and  _45
REMARK   21  A    between atoms: _45  and  _46
REMARK   22  A    between atoms: _49  and  _50
REMARK   23  A    between atoms: _50  and  _51
REMARK   24  A    between atoms: _50  and  _53
REMARK   25  A    between atoms: _53  and  _54
REMARK   26  A    between atoms: _60  and  _61
REMARK   27  A    between atoms: _61  and  _62
REMARK   28  A    between atoms: _61  and  _64
REMARK   29  A    between atoms: _64  and  _65
REMARK   30  A    between atoms: _65  and  _66
REMARK   31  A    between atoms: _69  and  _70
REMARK   32  A    between atoms: _70  and  _71
REMARK   33  A    between atoms: _74  and  _75
REMARK   34  A    between atoms: _75  and  _76
REMARK   35  A    between atoms: _75  and  _78
REMARK   36  A    between atoms: _78  and  _79
REMARK   37  A    between atoms: _79  and  _80
REMARK   38  A    between atoms: _83  and  _84
REMARK   39  A    between atoms: _84  and  _85
REMARK   40  A    between atoms: _84  and  _87
REMARK   41  A    between atoms: _87  and  _88
REMARK   42  A    between atoms: _91  and  _92
REMARK   43  A    between atoms: _92  and  _93
REMARK   44  A    between atoms: _96  and  _97
REMARK   45  A    between atoms: _97  and  _98
REMARK   46  A    between atoms: _97  and  _100
REMARK   47  A    between atoms: _100  and  _101
REMARK   48  A    between atoms: _101  and  _102
REMARK   49  A    between atoms: _105  and  _106
REMARK   50  A    between atoms: _106  and  _107
REMARK   51  A    between atoms: _106  and  _109
REMARK   52  A    between atoms: _109  and  _110
REMARK   53  A    between atoms: _113  and  _114
REMARK   54  A    between atoms: _114  and  _115
REMARK   55  A    between atoms: _114  and  _117
REMARK   56  A    between atoms: _117  and  _118
REMARK   57  A    between atoms: _118  and  _119
REMARK   58  A    between atoms: _121  and  _122
REMARK   59  A    between atoms: _122  and  _123
REMARK   60  A    between atoms: _122  and  _125
REMARK   61  A    between atoms: _127  and  _128
REMARK   62  A    between atoms: _128  and  _129
REMARK   63  A    between atoms: _128  and  _131
REMARK   64  A    between atoms: _131  and  _132
REMARK   65  A    between atoms: _135  and  _136
REMARK   66  A    between atoms: _136  and  _137
REMARK   67  A    between atoms: _136  and  _139
REMARK   68  A    between atoms: _139  and  _140
REMARK   69  A    between atoms: _143  and  _144
REMARK   70  A    between atoms: _144  and  _145
REMARK   71  A    between atoms: _144  and  _147
REMARK   72  A    between atoms: _147  and  _148
REMARK   73  A    between atoms: _151  and  _152
REMARK   74  A    between atoms: _152  and  _153
REMARK   75  A    between atoms: _152  and  _155
REMARK   76  A    between atoms: _155  and  _156
REMARK   77  A    between atoms: _159  and  _160
REMARK   78  A    between atoms: _160  and  _161
REMARK   79  A    between atoms: _160  and  _163
REMARK   80  A    between atoms: _166  and  _167
REMARK   81  A    between atoms: _167  and  _170
REMARK   82  A    between atoms: _170  and  _171
REMARK   83  A    between atoms: _181  and  _183
REMARK   84  A    between atoms: _183  and  _184
REMARK   85  A    between atoms: _189  and  _194
REMARK   86  A    between atoms: _192  and  _195
REMARK   87  A    between atoms: _193  and  _194
REMARK   88  A    between atoms: _195  and  _196
REMARK   89  A    between atoms: _201  and  _202
REMARK   90  A    between atoms: _202  and  _203
REMARK   91  A    between atoms: _202  and  _205
REMARK   92  A    between atoms: _207  and  _208
REMARK   93  A    between atoms: _208  and  _209
REMARK   94  A    between atoms: _208  and  _211
REMARK   95  A    between atoms: _211  and  _212
REMARK   96  A    between atoms: _215  and  _216
REMARK   97  A    between atoms: _216  and  _217
REMARK   98  A    between atoms: _216  and  _219
REMARK   99  A    between atoms: _219  and  _220
REMARK  100  A    between atoms: _220  and  _221
REMARK  101  A    between atoms: _221  and  _222
REMARK  102  A    between atoms: _224  and  _225
REMARK  103  A    between atoms: _225  and  _226
REMARK  104  A    between atoms: _225  and  _228
REMARK  105  A    between atoms: _228  and  _229
REMARK  106  A    between atoms: _229  and  _230
REMARK  107  A    between atoms: _233  and  _234
REMARK  108  A    between atoms: _234  and  _235
REMARK  109  A    between atoms: _234  and  _237
REMARK  110  A    between atoms: _237  and  _238
REMARK  111  A    between atoms: _241  and  _242
REMARK  112  A    between atoms: _242  and  _243
REMARK  113  A    between atoms: _242  and  _245
REMARK  114  A    between atoms: _245  and  _246
REMARK  115  A    between atoms: _252  and  _253
REMARK  116  A    between atoms: _253  and  _254
REMARK  117  A    between atoms: _253  and  _256
REMARK  118  A    between atoms: _256  and  _257
REMARK  119  A    between atoms: _260  and  _261
REMARK  120  A    between atoms: _261  and  _262
REMARK  121  A    between atoms: _261  and  _264
REMARK  122  A    between atoms: _264  and  _265
REMARK  123  A    between atoms: _265  and  _266
REMARK  124  A    between atoms: _266  and  _267
REMARK  125  A    between atoms: _271  and  _272
REMARK  126  A    between atoms: _272  and  _273
REMARK  127  A    between atoms: _272  and  _275
REMARK  128  A    between atoms: _275  and  _276
REMARK  129  A    between atoms: _276  and  _277
REMARK  130  A    between atoms: _280  and  _281
REMARK  131  A    between atoms: _281  and  _282
REMARK  132  A    between atoms: _281  and  _284
REMARK  133  A    between atoms: _284  and  _285
REMARK  134  A    between atoms: _288  and  _289
REMARK  135  A    between atoms: _289  and  _292
REMARK  136  A    between atoms: _292  and  _293
REMARK  137  A    between atoms: _309  and  _310
REMARK  138  A    between atoms: _309  and  _312
REMARK  139  A    between atoms: _312  and  _313
REMARK  140  A    between atoms: _316  and  _317
REMARK  141  A    between atoms: _317  and  _318
REMARK  142  A    between atoms: _317  and  _320
REMARK  143  A    between atoms: _322  and  _323
REMARK  144  A    between atoms: _323  and  _324
REMARK  145  A    between atoms: _323  and  _326
REMARK  146  A    between atoms: _328  and  _329
REMARK  147  A    between atoms: _329  and  _330
REMARK  148  A    between atoms: _329  and  _332
REMARK  149  A    between atoms: _332  and  _333
REMARK  150  A    between atoms: _336  and  _337
REMARK  151  A    between atoms: _337  and  _338
REMARK  152  A    between atoms: _341  and  _342
REMARK  153  A    between atoms: _342  and  _343
REMARK  154  A    between atoms: _342  and  _345
REMARK  155  A    between atoms: _345  and  _346
REMARK  156  A    between atoms: _349  and  _350
REMARK  157  A    between atoms: _350  and  _351
REMARK  158  A    between atoms: _350  and  _353
REMARK  159  A    between atoms: _353  and  _354
REMARK  160  A    between atoms: _357  and  _358
REMARK  161  A    between atoms: _358  and  _359
REMARK  162  A    between atoms: _358  and  _361
REMARK  163  A    between atoms: _361  and  _362
REMARK  164  A    between atoms: _362  and  _363
REMARK  165  A    between atoms: _363  and  _364
REMARK  166  A    between atoms: _366  and  _367
REMARK  167  A    between atoms: _367  and  _368
REMARK  168  A    between atoms: _367  and  _370
REMARK  169  A    between atoms: _370  and  _371
REMARK  170  A    between atoms: _374  and  _375
REMARK  171  A    between atoms: _375  and  _376
REMARK  172  A    between atoms: _375  and  _378
REMARK  173  A    between atoms: _378  and  _379
REMARK  174  A    between atoms: _379  and  _380
REMARK  175  A    between atoms: _380  and  _381
REMARK  176  A    between atoms: _385  and  _386
REMARK  177  A    between atoms: _386  and  _387
REMARK  178  A    between atoms: _386  and  _389
REMARK  179  A    between atoms: _389  and  _390
REMARK  180  A    between atoms: _397  and  _398
REMARK  181  A    between atoms: _398  and  _399
REMARK  182  A    between atoms: _398  and  _401
REMARK  183  A    between atoms: _401  and  _402
REMARK  184  A    between atoms: _402  and  _403
REMARK  185  A    between atoms: _406  and  _407
REMARK  186  A    between atoms: _407  and  _408
REMARK  187  A    between atoms: _407  and  _410
REMARK  188  A    between atoms: _412  and  _413
REMARK  189  A    between atoms: _413  and  _414
REMARK  190  A    between atoms: _413  and  _416
REMARK  191  A    between atoms: _416  and  _417
REMARK  192  A    between atoms: _420  and  _421
REMARK  193  A    between atoms: _421  and  _422
REMARK  194  A    between atoms: _421  and  _424
REMARK  195  A    between atoms: _427  and  _428
REMARK  196  A    between atoms: _428  and  _429
REMARK  197  A    between atoms: _428  and  _431
REMARK  198  A    between atoms: _431  and  _432
REMARK  199  A    between atoms: _436  and  _437
REMARK  200  A    between atoms: _442  and  _443
REMARK  201  A    between atoms: _443  and  _444
REMARK  202  A    between atoms: _443  and  _446
REMARK  203  A    between atoms: _448  and  _449
REMARK  204  A    between atoms: _449  and  _450
REMARK  205  A    between atoms: _449  and  _452
REMARK  206  A    between atoms: _452  and  _453
REMARK  207  A    between atoms: _453  and  _454
REMARK  208  A    between atoms: _454  and  _455
REMARK  209  A    between atoms: _457  and  _458
REMARK  210  A    between atoms: _458  and  _459
REMARK  211  A    between atoms: _458  and  _461
REMARK  212  A    between atoms: _461  and  _462
REMARK  213  A    between atoms: _465  and  _466
REMARK  214  A    between atoms: _466  and  _467
REMARK  215  A    between atoms: _466  and  _469
REMARK  216  A    between atoms: _469  and  _470
REMARK  217  A    between atoms: _473  and  _474
REMARK  218  A    between atoms: _474  and  _475
REMARK  219  A    between atoms: _474  and  _477
REMARK  220  A    between atoms: _479  and  _480
REMARK  221  A    between atoms: _480  and  _481
REMARK  222  A    between atoms: _483  and  _484
REMARK  223  A    between atoms: _484  and  _485
REMARK  224  A    between atoms: _484  and  _487
REMARK  225  A    between atoms: _487  and  _488
REMARK  226  A    between atoms: _488  and  _489
REMARK  227  A    between atoms: _489  and  _490
REMARK  228  A    between atoms: _492  and  _493
REMARK  229  A    between atoms: _493  and  _494
REMARK  230  A    between atoms: _493  and  _496
REMARK  231  A    between atoms: _496  and  _497
REMARK  232  A    between atoms: _497  and  _498
REMARK  233  A    between atoms: _501  and  _502
REMARK  234  A    between atoms: _502  and  _503
REMARK  235  A    between atoms: _502  and  _505
REMARK  236  A    between atoms: _505  and  _506
REMARK  237  A    between atoms: _509  and  _510
REMARK  238  A    between atoms: _510  and  _511
REMARK  239  A    between atoms: _510  and  _513
REMARK  240  A    between atoms: _513  and  _514
REMARK  241  A    between atoms: _519  and  _520
REMARK  242  A    between atoms: _520  and  _521
REMARK  243  A    between atoms: _520  and  _523
REMARK  244  A    between atoms: _523  and  _524
REMARK  245  A    between atoms: _527  and  _528
REMARK  246  A    between atoms: _528  and  _529
REMARK  247  A    between atoms: _528  and  _531
REMARK  248  A    between atoms: _531  and  _532
REMARK  249  A    between atoms: _535  and  _536
REMARK  250  A    between atoms: _536  and  _537
REMARK  251  A    between atoms: _536  and  _539
REMARK  252  A    between atoms: _539  and  _540
REMARK  253  A    between atoms: _543  and  _544
REMARK  254  A    between atoms: _544  and  _545
REMARK  255  A    between atoms: _544  and  _547
REMARK  256  A    between atoms: _547  and  _548
REMARK  257  A    between atoms: _552  and  _553
REMARK  258  A    between atoms: _558  and  _559
REMARK  259  A    between atoms: _559  and  _560
REMARK  260  A    between atoms: _559  and  _562
REMARK  261  A    between atoms: _562  and  _563
REMARK  262  A    between atoms: _566  and  _567
REMARK  263  A    between atoms: _567  and  _568
REMARK  264  A    between atoms: _567  and  _570
REMARK  265  A    between atoms: _570  and  _571
REMARK  266  A    between atoms: _571  and  _572
REMARK  267  A    between atoms: _572  and  _573
REMARK  268  A    between atoms: _575  and  _576
REMARK  269  A    between atoms: _576  and  _577
REMARK  270  A    between atoms: _576  and  _579
REMARK  271  A    between atoms: _579  and  _580
REMARK  272  A    between atoms: _580  and  _581
REMARK  273  A    between atoms: _584  and  _585
REMARK  274  A    between atoms: _585  and  _586
REMARK  275  A    between atoms: _585  and  _588
REMARK  276  A    between atoms: _588  and  _589
REMARK  277  A    between atoms: _592  and  _593
REMARK  278  A    between atoms: _593  and  _594
REMARK  279  A    between atoms: _593  and  _596
REMARK  280  A    between atoms: _596  and  _597
REMARK  281  A    between atoms: _597  and  _598
REMARK  282  A    between atoms: _598  and  _599
REMARK  283  A    between atoms: _603  and  _604
REMARK  284  A    between atoms: _604  and  _605
REMARK  285  A    between atoms: _604  and  _607
REMARK  286  A    between atoms: _610  and  _611
REMARK  287  A    between atoms: _611  and  _612
REMARK  288  A    between atoms: _611  and  _614
REMARK  289  A    between atoms: _614  and  _615
REMARK  290  A    between atoms: _618  and  _619
REMARK  291  A    between atoms: _619  and  _620
REMARK  292  A    between atoms: _619  and  _622
REMARK  293  A    between atoms: _625  and  _626
REMARK  294  A    between atoms: _626  and  _627
REMARK  295  A    between atoms: _626  and  _629
REMARK  296  A    between atoms: _629  and  _630
REMARK  297  A    between atoms: _633  and  _634
REMARK  298  A    between atoms: _634  and  _635
REMARK  299  A    between atoms: _634  and  _637
REMARK  300  A    between atoms: _640  and  _641
REMARK  301  A    between atoms: _641  and  _642
REMARK  302  A    between atoms: _641  and  _644
REMARK  303  A    between atoms: _644  and  _645
REMARK  304  A    between atoms: _648  and  _649
REMARK  305  A    between atoms: _649  and  _650
REMARK  306  A    between atoms: _649  and  _652
REMARK  307  A    between atoms: _655  and  _656
REMARK  308  A    between atoms: _656  and  _657
REMARK  309  A    between atoms: _659  and  _660
REMARK  310  A    between atoms: _660  and  _661
REMARK  311  A    between atoms: _660  and  _663
REMARK  312  A    between atoms: _663  and  _664
REMARK  313  A    between atoms: _667  and  _668
REMARK  314  A    between atoms: _668  and  _669
REMARK  315  A    between atoms: _671  and  _672
REMARK  316  A    between atoms: _672  and  _673
REMARK  317  A    between atoms: _672  and  _675
REMARK  318  A    between atoms: _675  and  _676
REMARK  319  A    between atoms: _676  and  _677
REMARK  320  A    between atoms: _679  and  _680
REMARK  321  A    between atoms: _680  and  _681
REMARK  322  A    between atoms: _680  and  _683
REMARK  323  A    between atoms: _686  and  _687
REMARK  324  A    between atoms: _687  and  _688
REMARK  325  A    between atoms: _687  and  _690
REMARK  326  A    between atoms: _690  and  _691
REMARK  327  A    between atoms: _691  and  _692
REMARK  328  A    between atoms: _692  and  _693
REMARK  329  A    between atoms: _695  and  _696
REMARK  330  A    between atoms: _696  and  _697
REMARK  331  A    between atoms: _700  and  _701
REMARK  332  A    between atoms: _701  and  _702
REMARK  333  A    between atoms: _701  and  _704
REMARK  334  A    between atoms: _704  and  _705
REMARK  335  A    between atoms: _708  and  _709
REMARK  336  A    between atoms: _709  and  _710
REMARK  337  A    between atoms: _709  and  _712
REMARK  338  A    between atoms: _712  and  _713
REMARK  339  A    between atoms: _716  and  _717
REMARK  340  A    between atoms: _717  and  _720
REMARK  341  A    between atoms: _720  and  _721
REMARK  342  A    between atoms: _733  and  _734
REMARK  343  A    between atoms: _733  and  _735
REMARK  344  A    between atoms: _741  and  _744
REMARK  345  A    between atoms: _744  and  _745
REMARK  346  A    between atoms: _758  and  _759
REMARK  347  A    between atoms: _758  and  _761
REMARK  348  A    between atoms: _759  and  _760
REMARK  349  A    between atoms: _765  and  _766
REMARK  350  A    between atoms: _768  and  _769
REMARK  351  A    between atoms: _769  and  _770
REMARK  352  A    between atoms: _769  and  _772
REMARK  353  A    between atoms: _775  and  _776
REMARK  354  A    between atoms: _776  and  _777
REMARK  355  A    between atoms: _776  and  _779
REMARK  356  A    between atoms: _779  and  _780
REMARK  357  A    between atoms: _783  and  _784
REMARK  358  A    between atoms: _784  and  _785
REMARK  359  A    between atoms: _788  and  _789
REMARK  360  A    between atoms: _789  and  _790
REMARK  361  A    between atoms: _789  and  _792
REMARK  362  A    between atoms: _792  and  _793
REMARK  363  A    between atoms: _793  and  _794
REMARK  364  A    between atoms: _794  and  _795
REMARK  365  A    between atoms: _797  and  _798
REMARK  366  A    between atoms: _798  and  _799
REMARK  367  A    between atoms: _798  and  _801
REMARK  368  A    between atoms: _803  and  _804
REMARK  369  A    between atoms: _804  and  _805
REMARK  370  A    between atoms: _807  and  _808
REMARK  371  A    between atoms: _808  and  _809
REMARK  372  A    between atoms: _808  and  _811
REMARK  373  A    between atoms: _814  and  _815
REMARK  374  A    between atoms: _815  and  _816
REMARK  375  A    between atoms: _815  and  _818
REMARK  376  A    between atoms: _818  and  _819
REMARK  377  A    between atoms: _819  and  _820
REMARK  378  A    between atoms: _820  and  _821
REMARK  379  A    between atoms: _823  and  _824
REMARK  380  A    between atoms: _824  and  _825
REMARK  381  A    between atoms: _828  and  _829
REMARK  382  A    between atoms: _829  and  _830
REMARK  383  A    between atoms: _829  and  _832
REMARK  384  A    between atoms: _832  and  _833
REMARK  385  A    between atoms: _839  and  _840
REMARK  386  A    between atoms: _840  and  _841
REMARK  387  A    between atoms: _840  and  _843
REMARK  388  A    between atoms: _843  and  _844
REMARK  389  A    between atoms: _844  and  _845
REMARK  390  A    between atoms: _847  and  _848
REMARK  391  A    between atoms: _848  and  _849
REMARK  392  A    between atoms: _848  and  _851
REMARK  393  A    between atoms: _851  and  _852
REMARK  394  A    between atoms: _852  and  _853
REMARK  395  A    between atoms: _856  and  _857
REMARK  396  A    between atoms: _857  and  _858
REMARK  397  A    between atoms: _861  and  _862
REMARK  398  A    between atoms: _862  and  _863
REMARK  399  A    between atoms: _862  and  _865
REMARK  400  A    between atoms: _865  and  _866
REMARK  401  A    between atoms: _869  and  _870
REMARK  402  A    between atoms: _870  and  _871
REMARK  403  A    between atoms: _870  and  _873
REMARK  404  A    between atoms: _873  and  _874
REMARK  405  A    between atoms: _874  and  _875
REMARK  406  A    between atoms: _878  and  _879
REMARK  407  A    between atoms: _879  and  _880
REMARK  408  A    between atoms: _883  and  _884
REMARK  409  A    between atoms: _884  and  _885
REMARK  410  A    between atoms: _887  and  _888
REMARK  411  A    between atoms: _888  and  _889
REMARK  412  A    between atoms: _892  and  _893
REMARK  413  A    between atoms: _893  and  _894
REMARK  414  A    between atoms: _893  and  _896
REMARK  415  A    between atoms: _896  and  _897
REMARK  416  A    between atoms: _900  and  _901
REMARK  417  A    between atoms: _901  and  _902
REMARK  418  A    between atoms: _901  and  _904
REMARK  419  A    between atoms: _904  and  _905
REMARK  420  A    between atoms: _908  and  _909
REMARK  421  A    between atoms: _909  and  _910
REMARK  422  A    between atoms: _909  and  _912
REMARK  423  A    between atoms: _914  and  _915
REMARK  424  A    between atoms: _915  and  _916
REMARK  425  A    between atoms: _915  and  _918
REMARK  426  A    between atoms: _918  and  _919
REMARK  427  A    between atoms: _919  and  _920
REMARK  428  A    between atoms: _922  and  _923
REMARK  429  A    between atoms: _923  and  _924
REMARK  430  A    between atoms: _923  and  _926
REMARK  431  A    between atoms: _926  and  _927
REMARK  432  A    between atoms: _930  and  _931
REMARK  433  A    between atoms: _931  and  _932
REMARK  434  A    between atoms: _934  and  _935
REMARK  435  A    between atoms: _935  and  _936
REMARK  436  A    between atoms: _935  and  _938
REMARK  437  A    between atoms: _938  and  _939
REMARK  438  A    between atoms: _939  and  _940
REMARK  439  A    between atoms: _943  and  _944
REMARK  440  A    between atoms: _944  and  _945
REMARK  441  A    between atoms: _944  and  _947
REMARK  442  A    between atoms: _947  and  _948
REMARK  443  A    between atoms: _954  and  _955
REMARK  444  A    between atoms: _955  and  _956
REMARK  445  A    between atoms: _958  and  _959
REMARK  446  A    between atoms: _959  and  _960
REMARK  447  A    between atoms: _959  and  _962
REMARK  448  A    between atoms: _965  and  _966
REMARK  449  A    between atoms: _966  and  _967
REMARK  450  A    between atoms: _969  and  _970
REMARK  451  A    between atoms: _970  and  _971
REMARK  452  A    between atoms: _970  and  _973
REMARK  453  A    between atoms: _973  and  _974
REMARK  454  A    between atoms: _980  and  _981
REMARK  455  A    between atoms: _981  and  _982
REMARK  456  A    between atoms: _981  and  _984
REMARK  457  A    between atoms: _984  and  _985
REMARK  458  A    between atoms: _992  and  _993
REMARK  459  A    between atoms: _993  and  _994
REMARK  460  A    between atoms: _993  and  _996
REMARK  461  A    between atoms: _998  and  _999
REMARK  462  A    between atoms: _999  and  _1000
REMARK  463  A    between atoms: _1003  and  _1004
REMARK  464  A    between atoms: _1004  and  _1005
REMARK  465  A    between atoms: _1004  and  _1007
REMARK  466  A    between atoms: _1007  and  _1008
REMARK  467  A    between atoms: _1015  and  _1016
REMARK  468  A    between atoms: _1016  and  _1017
REMARK  469  A    between atoms: _1016  and  _1019
REMARK  470  A    between atoms: _1019  and  _1020
REMARK  471  A    between atoms: _1023  and  _1024
REMARK  472  A    between atoms: _1024  and  _1025
REMARK  473  A    between atoms: _1024  and  _1027
REMARK  474  A    between atoms: _1030  and  _1031
REMARK  475  A    between atoms: _1031  and  _1032
REMARK  476  A    between atoms: _1035  and  _1036
REMARK  477  A    between atoms: _1036  and  _1037
REMARK  478  A    between atoms: _1036  and  _1039
REMARK  479  A    between atoms: _1039  and  _1040
REMARK  480  A    between atoms: _1040  and  _1041
REMARK  481  A    between atoms: _1044  and  _1045
REMARK  482  A    between atoms: _1045  and  _1046
REMARK  483  A    between atoms: _1045  and  _1048
REMARK  484  A    between atoms: _1048  and  _1049
REMARK  485  A    between atoms: _1049  and  _1050
REMARK  486  A    between atoms: _1050  and  _1051
REMARK  487  A    between atoms: _1053  and  _1054
REMARK  488  A    between atoms: _1054  and  _1055
REMARK  489  A    between atoms: _1054  and  _1057
REMARK  490  A    between atoms: _1060  and  _1061
REMARK  491  A    between atoms: _1061  and  _1062
REMARK  492  A    between atoms: _1061  and  _1064
REMARK  493  A    between atoms: _1067  and  _1068
REMARK  494  A    between atoms: _1068  and  _1069
REMARK  495  A    between atoms: _1068  and  _1071
REMARK  496  A    between atoms: _1074  and  _1075
REMARK  497  A    between atoms: _1075  and  _1076
REMARK  498  A    between atoms: _1075  and  _1078
REMARK  499  A    between atoms: _1078  and  _1079
REMARK  500  A    between atoms: _1082  and  _1083
REMARK  501  A    between atoms: _1083  and  _1084
REMARK  502  A    between atoms: _1083  and  _1086
REMARK  503  A    between atoms: _1089  and  _1090
REMARK  504  A    between atoms: _1090  and  _1091
REMARK  505  A    between atoms: _1090  and  _1093
REMARK  506  A    between atoms: _1093  and  _1094
REMARK  507  A    between atoms: _1094  and  _1095
REMARK  508  A    between atoms: _1095  and  _1096
REMARK  509  A    between atoms: _1098  and  _1099
REMARK  510  A    between atoms: _1099  and  _1100
REMARK  511  A    between atoms: _1099  and  _1102
REMARK  512  A    between atoms: _1102  and  _1103
REMARK  513  A    between atoms: _1108  and  _1109
REMARK  514  A    between atoms: _1109  and  _1110
REMARK  515  A    between atoms: _1109  and  _1112
REMARK  516  A    between atoms: _1112  and  _1113
REMARK  517  A    between atoms: _1116  and  _1117
REMARK  518  A    between atoms: _1117  and  _1118
REMARK  519  A    between atoms: _1117  and  _1120
REMARK  520  A    between atoms: _1120  and  _1121
REMARK  521  A    between atoms: _1124  and  _1125
REMARK  522  A    between atoms: _1125  and  _1126
REMARK  523  A    between atoms: _1125  and  _1128
REMARK  524  A    between atoms: _1128  and  _1129
REMARK  525  A    between atoms: _1132  and  _1133
REMARK  526  A    between atoms: _1133  and  _1134
REMARK  527  A    between atoms: _1133  and  _1136
REMARK  528  A    between atoms: _1136  and  _1137
REMARK  529  A    between atoms: _1137  and  _1138
REMARK  530  A    between atoms: _1141  and  _1142
REMARK  531  A    between atoms: _1142  and  _1143
REMARK  532  A    between atoms: _1142  and  _1145
REMARK  533  A    between atoms: _1145  and  _1146
REMARK  534  A    between atoms: _1146  and  _1147
REMARK  535  A    between atoms: _1150  and  _1151
REMARK  536  A    between atoms: _1151  and  _1152
REMARK  537  A    between atoms: _1151  and  _1154
REMARK  538  A    between atoms: _1154  and  _1155
REMARK  539  A    between atoms: _1162  and  _1163
REMARK  540  A    between atoms: _1163  and  _1164
REMARK  541  A    between atoms: _1167  and  _1168
REMARK  542  A    between atoms: _1168  and  _1169
REMARK  543  A    between atoms: _1168  and  _1171
REMARK  544  A    between atoms: _1171  and  _1172
REMARK  545  A    between atoms: _1181  and  _1182
REMARK  546  A    between atoms: _1182  and  _1183
REMARK  547  A    between atoms: _1182  and  _1185
REMARK  548  A    between atoms: _1185  and  _1186
REMARK  549  A    between atoms: _1186  and  _1187
REMARK  550  A    between atoms: _1190  and  _1191
REMARK  551  A    between atoms: _1191  and  _1192
REMARK  552  A    between atoms: _1191  and  _1194
REMARK  553  A    between atoms: _1196  and  _1197
REMARK  554  A    between atoms: _1197  and  _1198
REMARK  555  A    between atoms: _1197  and  _1200
REMARK  556  A    between atoms: _1202  and  _1203
REMARK  557  A    between atoms: _1203  and  _1204
REMARK  558  A    between atoms: _1207  and  _1208
REMARK  559  A    between atoms: _1208  and  _1209
REMARK  560  A    between atoms: _1211  and  _1212
REMARK  561  A    between atoms: _1212  and  _1213
REMARK  562  A    between atoms: _1215  and  _1216
REMARK  563  A    between atoms: _1216  and  _1217
REMARK  564  A    between atoms: _1216  and  _1219
REMARK  565  A    between atoms: _1221  and  _1222
REMARK  566  A    between atoms: _1222  and  _1223
REMARK  567  A    between atoms: _1222  and  _1225
REMARK  568  A    between atoms: _1225  and  _1226
REMARK  569  A    between atoms: _1232  and  _1233
REMARK  570  A    between atoms: _1233  and  _1234
REMARK  571  A    between atoms: _1233  and  _1236
REMARK  572  A    between atoms: _1239  and  _1240
REMARK  573  A    between atoms: _1240  and  _1241
REMARK  574  A    between atoms: _1240  and  _1243
REMARK  575  A    between atoms: _1247  and  _1249
REMARK  576  A    between atoms: _1247  and  _1252
REMARK  577  A    between atoms: _1251  and  _1252
REMARK  578  A    between atoms: _1251  and  _1254
REMARK  579  A    between atoms: _1253  and  _1254
REMARK  580  A    between atoms: _1253  and  _1256
REMARK  581  A    between atoms: _1254  and  _1255
REMARK  582  A    between atoms: _1255  and  _1257
REMARK  583  A    between atoms: _1256  and  _1258
REMARK  584  A    between atoms: _1265  and  _1266
REMARK  585  A    between atoms: _1266  and  _1267
REMARK  586  A    between atoms: _1266  and  _1269
REMARK  587  A    between atoms: _1272  and  _1273
REMARK  588  A    between atoms: _1273  and  _1274
REMARK  589  A    between atoms: _1273  and  _1276
REMARK  590  A    between atoms: _1276  and  _1277
REMARK  591  A    between atoms: _1280  and  _1281
REMARK  592  A    between atoms: _1281  and  _1282
REMARK  593  A    between atoms: _1281  and  _1284
REMARK  594  A    between atoms: _1287  and  _1288
REMARK  595  A    between atoms: _1288  and  _1289
REMARK  596  A    between atoms: _1291  and  _1292
REMARK  597  A    between atoms: _1292  and  _1293
REMARK  598  A    between atoms: _1292  and  _1295
REMARK  599  A    between atoms: _1295  and  _1296
REMARK  600  A    between atoms: _1296  and  _1297
REMARK  601  A    between atoms: _1301  and  _1302
REMARK  602  A    between atoms: _1307  and  _1308
REMARK  603  A    between atoms: _1308  and  _1309
REMARK  604  A    between atoms: _1308  and  _1311
REMARK  605  A    between atoms: _1311  and  _1312
REMARK  606  A    between atoms: _1312  and  _1313
REMARK  607  A    between atoms: _1315  and  _1316
REMARK  608  A    between atoms: _1316  and  _1317
REMARK  609  A    between atoms: _1319  and  _1320
REMARK  610  A    between atoms: _1320  and  _1321
REMARK  611  A    between atoms: _1320  and  _1323
REMARK  612  A    between atoms: _1323  and  _1324
REMARK  613  A    between atoms: _1324  and  _1325
REMARK  614  A    between atoms: _1325  and  _1326
REMARK  615  A    between atoms: _1330  and  _1331
REMARK  616  A    between atoms: _1331  and  _1332
REMARK  617  A    between atoms: _1334  and  _1335
REMARK  618  A    between atoms: _1335  and  _1336
REMARK  619  A    between atoms: _1335  and  _1338
REMARK  620  A    between atoms: _1341  and  _1342
REMARK  621  A    between atoms: _1342  and  _1343
REMARK  622  A    between atoms: _1342  and  _1345
REMARK  623  A    between atoms: _1345  and  _1346
REMARK  624  A    between atoms: _1346  and  _1347
REMARK  625  A    between atoms: _1347  and  _1348
REMARK  626  A    between atoms: _1350  and  _1351
REMARK  627  A    between atoms: _1351  and  _1352
REMARK  628  A    between atoms: _1351  and  _1354
REMARK  629  A    between atoms: _1357  and  _1358
REMARK  630  A    between atoms: _1358  and  _1359
REMARK  631  A    between atoms: _1358  and  _1361
REMARK  632  A    between atoms: _1361  and  _1362
REMARK  633  A    between atoms: _1365  and  _1366
REMARK  634  A    between atoms: _1366  and  _1367
REMARK  635  A    between atoms: _1366  and  _1369
REMARK  636  A    between atoms: _1369  and  _1370
REMARK  637  A    between atoms: _1373  and  _1374
REMARK  638  A    between atoms: _1374  and  _1375
REMARK  639  A    between atoms: _1374  and  _1377
REMARK  640  A    between atoms: _1377  and  _1378
REMARK  641  A    between atoms: _1383  and  _1384
REMARK  642  A    between atoms: _1384  and  _1385
REMARK  643  A    between atoms: _1384  and  _1387
REMARK  644  A    between atoms: _1387  and  _1388
REMARK  645  A    between atoms: _1391  and  _1392
REMARK  646  A    between atoms: _1392  and  _1393
REMARK  647  A    between atoms: _1392  and  _1395
REMARK  648  A    between atoms: _1395  and  _1396
REMARK  649  A    between atoms: _1396  and  _1397
REMARK  650  A    between atoms: _1397  and  _1398
REMARK  651  A    between atoms: _1400  and  _1401
REMARK  652  A    between atoms: _1401  and  _1402
REMARK  653  A    between atoms: _1401  and  _1404
REMARK  654  A    between atoms: _1404  and  _1405
REMARK  655  A    between atoms: _1405  and  _1406
REMARK  656  A    between atoms: _1409  and  _1410
REMARK  657  A    between atoms: _1410  and  _1411
REMARK  658  A    between atoms: _1410  and  _1413
REMARK  659  A    between atoms: _1413  and  _1414
REMARK  660  A    between atoms: _1417  and  _1418
REMARK  661  A    between atoms: _1418  and  _1419
REMARK  662  A    between atoms: _1418  and  _1421
REMARK  663  A    between atoms: _1421  and  _1422
REMARK  664  A    between atoms: _1422  and  _1423
REMARK  665  A    between atoms: _1426  and  _1427
REMARK  666  A    between atoms: _1427  and  _1428
REMARK  667  A    between atoms: _1427  and  _1430
REMARK  668  A    between atoms: _1433  and  _1434
REMARK  669  A    between atoms: _1434  and  _1435
REMARK  670  A    between atoms: _1434  and  _1437
REMARK  671  A    between atoms: _1437  and  _1438
REMARK  672  A    between atoms: _1438  and  _1439
REMARK  673  A    between atoms: _1442  and  _1443
REMARK  674  A    between atoms: _1443  and  _1444
REMARK  675  A    between atoms: _1443  and  _1446
REMARK  676  A    between atoms: _1446  and  _1447
REMARK  677  A    between atoms: _1454  and  _1455
REMARK  678  A    between atoms: _1455  and  _1456
REMARK  679  A    between atoms: _1455  and  _1458
REMARK  680  A    between atoms: _1458  and  _1459
REMARK  681  A    between atoms: _1462  and  _1463
REMARK  682  A    between atoms: _1463  and  _1464
REMARK  683  A    between atoms: _1463  and  _1466
REMARK  684  A    between atoms: _1466  and  _1467
REMARK  685  A    between atoms: _1467  and  _1468
REMARK  686  A    between atoms: _1471  and  _1472
REMARK  687  A    between atoms: _1472  and  _1473
REMARK  688  A    between atoms: _1472  and  _1475
REMARK  689  A    between atoms: _1475  and  _1476
REMARK  690  A    between atoms: _1476  and  _1477
REMARK  691  A    between atoms: _1480  and  _1481
REMARK  692  A    between atoms: _1481  and  _1482
REMARK  693  A    between atoms: _1481  and  _1484
REMARK  694  A    between atoms: _1484  and  _1485
REMARK  695  A    between atoms: _1485  and  _1486
REMARK  696  A    between atoms: _1486  and  _1487
REMARK  697  A    between atoms: _1491  and  _1492
REMARK  698  A    between atoms: _1492  and  _1493
REMARK  699  A    between atoms: _1492  and  _1495
REMARK  700  A    between atoms: _1495  and  _1496
REMARK  701  A    between atoms: _1496  and  _1497
REMARK  702  A    between atoms: _1497  and  _1498
REMARK  703  A    between atoms: _1502  and  _1503
REMARK  704  A    between atoms: _1503  and  _1504
REMARK  705  A    between atoms: _1503  and  _1506
REMARK  706  A    between atoms: _1506  and  _1507
REMARK  707  A    between atoms: _1510  and  _1511
REMARK  708  A    between atoms: _1511  and  _1512
REMARK  709  A    between atoms: _1511  and  _1514
REMARK  710  A    between atoms: _1514  and  _1515
REMARK  711  A    between atoms: _1515  and  _1516
REMARK  712  A    between atoms: _1516  and  _1517
REMARK  713  A    between atoms: _1519  and  _1520
REMARK  714  A    between atoms: _1520  and  _1521
REMARK  715  A    between atoms: _1520  and  _1523
REMARK  716  A    between atoms: _1523  and  _1524
REMARK  717  A    between atoms: _1524  and  _1525
REMARK  718  A    between atoms: _1528  and  _1529
REMARK  719  A    between atoms: _1529  and  _1530
REMARK  720  A    between atoms: _1529  and  _1532
REMARK  721  A    between atoms: _1532  and  _1533
REMARK  722  A    between atoms: _1536  and  _1537
REMARK  723  A    between atoms: _1537  and  _1538
REMARK  724  A    between atoms: _1537  and  _1540
REMARK  725  A    between atoms: _1543  and  _1544
REMARK  726  A    between atoms: _1544  and  _1545
REMARK  727  A    between atoms: _1544  and  _1547
REMARK  728  A    between atoms: _1547  and  _1548
REMARK  729  A    between atoms: _1548  and  _1549
REMARK  730  A    between atoms: _1549  and  _1550
REMARK  731  A    between atoms: _1552  and  _1553
REMARK  732  A    between atoms: _1553  and  _1554
REMARK  733  A    between atoms: _1553  and  _1556
REMARK  734  A    between atoms: _1556  and  _1557
REMARK  735  A    between atoms: _1557  and  _1558
REMARK  736  A    between atoms: _1558  and  _1559
REMARK  737  A    between atoms: _1561  and  _1562
REMARK  738  A    between atoms: _1562  and  _1563
REMARK  739  A    between atoms: _1562  and  _1565
REMARK  740  A    between atoms: _1565  and  _1566
REMARK  741  A    between atoms: _1571  and  _1572
REMARK  742  A    between atoms: _1572  and  _1573
REMARK  743  A    between atoms: _1572  and  _1575
REMARK  744  A    between atoms: _1577  and  _1578
REMARK  745  A    between atoms: _1578  and  _1579
REMARK  746  A    between atoms: _1578  and  _1581
REMARK  747  A    between atoms: _1581  and  _1582
REMARK  748  A    between atoms: _1582  and  _1583
REMARK  749  A    between atoms: _1586  and  _1587
REMARK  750  A    between atoms: _1587  and  _1588
REMARK  751  A    between atoms: _1587  and  _1590
REMARK  752  A    between atoms: _1590  and  _1591
REMARK  753  A    between atoms: _1597  and  _1598
REMARK  754  A    between atoms: _1598  and  _1599
REMARK  755  A    between atoms: _1598  and  _1601
REMARK  756  A    between atoms: _1601  and  _1602
REMARK  757  A    between atoms: _1605  and  _1606
REMARK  758  A    between atoms: _1606  and  _1607
REMARK  759  A    between atoms: _1609  and  _1610
REMARK  760  A    between atoms: _1610  and  _1611
REMARK  761  A    between atoms: _1610  and  _1613
REMARK  762  A    between atoms: _1613  and  _1614
REMARK  763  A    between atoms: _1622  and  _1623
REMARK  764  A    between atoms: _1628  and  _1629
REMARK  765  A    between atoms: _1629  and  _1630
REMARK  766  A    between atoms: _1629  and  _1632
REMARK  767  A    between atoms: _1632  and  _1633
REMARK  768  A    between atoms: _1636  and  _1637
REMARK  769  A    between atoms: _1637  and  _1638
REMARK  770  A    between atoms: _1637  and  _1640
REMARK  771  A    between atoms: _1643  and  _1644
REMARK  772  A    between atoms: _1644  and  _1645
REMARK  773  A    between atoms: _1644  and  _1647
REMARK  774  A    between atoms: _1647  and  _1648
REMARK  775  A    between atoms: _1651  and  _1652
REMARK  776  A    between atoms: _1652  and  _1653
REMARK  777  A    between atoms: _1652  and  _1655
REMARK  778  A    between atoms: _1655  and  _1656
REMARK  779  A    between atoms: _1662  and  _1663
REMARK  780  A    between atoms: _1663  and  _1664
REMARK  781  A    between atoms: _1663  and  _1666
REMARK  782  A    between atoms: _1669  and  _1670
REMARK  783  A    between atoms: _1670  and  _1671
REMARK  784  A    between atoms: _1670  and  _1673
REMARK  785  A    between atoms: _1673  and  _1674
REMARK  786  A    between atoms: _1674  and  _1675
REMARK                            x       y       z     vdW  Elec       q    Type
REMARK                         _______ _______ _______ _____ _____    ______ ____
ROOT
ATOM      1  C   UNL     1       7.076  11.514  26.314  0.00  0.00    +0.320 C 
ATOM      2  N   UNL     1       6.085  12.058  27.038  0.00  0.00    -0.196 NA
ATOM      3  C   UNL     1       4.687  11.775  26.912  0.00  0.00    +0.139 C 
ATOM      4  O   UNL     1       6.854  10.743  25.368  0.00  0.00    -0.263 OA
ENDROOT
TORSDOF 0
REMARK  Name = /Users/mlugowska/PhD/ML_residence_time_prediction/protein_files/5J64_protein.pdb
REMARK  786 active torsions:
REMARK  status: ('A' for Active; 'I' for Inactive)
REMARK    1  A    between atoms: _2  and  _3
REMARK    2  A    between atoms: _2  and  _5
REMARK    3  A    between atoms: _5  and  _6
REMARK    4  A    between atoms: _6  and  _7
REMARK    5  A    between atoms: _10  and  _11
REMARK    6  A    between atoms: _11  and  _12
REMARK    7  A    between atoms: _11  and  _14
REMARK    8  A    between atoms: _17  and  _18
REMARK    9  A    between atoms: _18  and  _19
REMARK   10  A    between atoms: _18  and  _21
REMARK   11  A    between atoms: _21  and  _22
REMARK   12  A    between atoms: _22  and  _23
REMARK   13  A    between atoms: _26  and  _27
REMARK   14  A    between atoms: _27  and  _28
REMARK   15  A    between atoms: _27  and  _30
REMARK   16  A    between atoms: _33  and  _34
REMARK   17  A    between atoms: _34  and  _35
REMARK   18  A    between atoms: _34  and  _37
REMARK   19  A    between atoms: _37  and  _38
REMARK   20  A    between atoms: _44  and  _45
REMARK   21  A    between atoms: _45  and  _46
REMARK   22  A    between atoms: _49  and  _50
REMARK   23  A    between atoms: _50  and  _51
REMARK   24  A    between atoms: _50  and  _53
REMARK   25  A    between atoms: _53  and  _54
REMARK   26  A    between atoms: _60  and  _61
REMARK   27  A    between atoms: _61  and  _62
REMARK   28  A    between atoms: _61  and  _64
REMARK   29  A    between atoms: _64  and  _65
REMARK   30  A    between atoms: _65  and  _66
REMARK   31  A    between atoms: _69  and  _70
REMARK   32  A    between atoms: _70  and  _71
REMARK   33  A    between atoms: _74  and  _75
REMARK   34  A    between atoms: _75  and  _76
REMARK   35  A    between atoms: _75  and  _78
REMARK   36  A    between atoms: _78  and  _79
REMARK   37  A    between atoms: _79  and  _80
REMARK   38  A    between atoms: _83  and  _84
REMARK   39  A    between atoms: _84  and  _85
REMARK   40  A    between atoms: _84  and  _87
REMARK   41  A    between atoms: _87  and  _88
REMARK   42  A    between atoms: _91  and  _92
REMARK   43  A    between atoms: _92  and  _93
REMARK   44  A    between atoms: _96  and  _97
REMARK   45  A    between atoms: _97  and  _98
REMARK   46  A    between atoms: _97  and  _100
REMARK   47  A    between atoms: _100  and  _101
REMARK   48  A    between atoms: _101  and  _102
REMARK   49  A    between atoms: _105  and  _106
REMARK   50  A    between atoms: _106  and  _107
REMARK   51  A    between atoms: _106  and  _109
REMARK   52  A    between atoms: _109  and  _110
REMARK   53  A    between atoms: _113  and  _114
REMARK   54  A    between atoms: _114  and  _115
REMARK   55  A    between atoms: _114  and  _117
REMARK   56  A    between atoms: _117  and  _118
REMARK   57  A    between atoms: _118  and  _119
REMARK   58  A    between atoms: _121  and  _122
REMARK   59  A    between atoms: _122  and  _123
REMARK   60  A    between atoms: _122  and  _125
REMARK   61  A    between atoms: _127  and  _128
REMARK   62  A    between atoms: _128  and  _129
REMARK   63  A    between atoms: _128  and  _131
REMARK   64  A    between atoms: _131  and  _132
REMARK   65  A    between atoms: _135  and  _136
REMARK   66  A    between atoms: _136  and  _137
REMARK   67  A    between atoms: _136  and  _139
REMARK   68  A    between atoms: _139  and  _140
REMARK   69  A    between atoms: _143  and  _144
REMARK   70  A    between atoms: _144  and  _145
REMARK   71  A    between atoms: _144  and  _147
REMARK   72  A    between atoms: _147  and  _148
REMARK   73  A    between atoms: _151  and  _152
REMARK   74  A    between atoms: _152  and  _153
REMARK   75  A    between atoms: _152  and  _155
REMARK   76  A    between atoms: _155  and  _156
REMARK   77  A    between atoms: _159  and  _160
REMARK   78  A    between atoms: _160  and  _161
REMARK   79  A    between atoms: _160  and  _163
REMARK   80  A    between atoms: _166  and  _167
REMARK   81  A    between atoms: _167  and  _170
REMARK   82  A    between atoms: _170  and  _171
REMARK   83  A    between atoms: _181  and  _183
REMARK   84  A    between atoms: _183  and  _184
REMARK   85  A    between atoms: _189  and  _194
REMARK   86  A    between atoms: _192  and  _195
REMARK   87  A    between atoms: _193  and  _194
REMARK   88  A    between atoms: _195  and  _196
REMARK   89  A    between atoms: _201  and  _202
REMARK   90  A    between atoms: _202  and  _203
REMARK   91  A    between atoms: _202  and  _205
REMARK   92  A    between atoms: _207  and  _208
REMARK   93  A    between atoms: _208  and  _209
REMARK   94  A    between atoms: _208  and  _211
REMARK   95  A    between atoms: _211  and  _212
REMARK   96  A    between atoms: _215  and  _216
REMARK   97  A    between atoms: _216  and  _217
REMARK   98  A    between atoms: _216  and  _219
REMARK   99  A    between atoms: _219  and  _220
REMARK  100  A    between atoms: _220  and  _221
REMARK  101  A    between atoms: _221  and  _222
REMARK  102  A    between atoms: _224  and  _225
REMARK  103  A    between atoms: _225  and  _226
REMARK  104  A    between atoms: _225  and  _228
REMARK  105  A    between atoms: _228  and  _229
REMARK  106  A    between atoms: _229  and  _230
REMARK  107  A    between atoms: _233  and  _234
REMARK  108  A    between atoms: _234  and  _235
REMARK  109  A    between atoms: _234  and  _237
REMARK  110  A    between atoms: _237  and  _238
REMARK  111  A    between atoms: _241  and  _242
REMARK  112  A    between atoms: _242  and  _243
REMARK  113  A    between atoms: _242  and  _245
REMARK  114  A    between atoms: _245  and  _246
REMARK  115  A    between atoms: _252  and  _253
REMARK  116  A    between atoms: _253  and  _254
REMARK  117  A    between atoms: _253  and  _256
REMARK  118  A    between atoms: _256  and  _257
REMARK  119  A    between atoms: _260  and  _261
REMARK  120  A    between atoms: _261  and  _262
REMARK  121  A    between atoms: _261  and  _264
REMARK  122  A    between atoms: _264  and  _265
REMARK  123  A    between atoms: _265  and  _266
REMARK  124  A    between atoms: _266  and  _267
REMARK  125  A    between atoms: _271  and  _272
REMARK  126  A    between atoms: _272  and  _273
REMARK  127  A    between atoms: _272  and  _275
REMARK  128  A    between atoms: _275  and  _276
REMARK  129  A    between atoms: _276  and  _277
REMARK  130  A    between atoms: _280  and  _281
REMARK  131  A    between atoms: _281  and  _282
REMARK  132  A    between atoms: _281  and  _284
REMARK  133  A    between atoms: _284  and  _285
REMARK  134  A    between atoms: _288  and  _289
REMARK  135  A    between atoms: _289  and  _292
REMARK  136  A    between atoms: _292  and  _293
REMARK  137  A    between atoms: _309  and  _310
REMARK  138  A    between atoms: _309  and  _312
REMARK  139  A    between atoms: _312  and  _313
REMARK  140  A    between atoms: _316  and  _317
REMARK  141  A    between atoms: _317  and  _318
REMARK  142  A    between atoms: _317  and  _320
REMARK  143  A    between atoms: _322  and  _323
REMARK  144  A    between atoms: _323  and  _324
REMARK  145  A    between atoms: _323  and  _326
REMARK  146  A    between atoms: _328  and  _329
REMARK  147  A    between atoms: _329  and  _330
REMARK  148  A    between atoms: _329  and  _332
REMARK  149  A    between atoms: _332  and  _333
REMARK  150  A    between atoms: _336  and  _337
REMARK  151  A    between atoms: _337  and  _338
REMARK  152  A    between atoms: _341  and  _342
REMARK  153  A    between atoms: _342  and  _343
REMARK  154  A    between atoms: _342  and  _345
REMARK  155  A    between atoms: _345  and  _346
REMARK  156  A    between atoms: _349  and  _350
REMARK  157  A    between atoms: _350  and  _351
REMARK  158  A    between atoms: _350  and  _353
REMARK  159  A    between atoms: _353  and  _354
REMARK  160  A    between atoms: _357  and  _358
REMARK  161  A    between atoms: _358  and  _359
REMARK  162  A    between atoms: _358  and  _361
REMARK  163  A    between atoms: _361  and  _362
REMARK  164  A    between atoms: _362  and  _363
REMARK  165  A    between atoms: _363  and  _364
REMARK  166  A    between atoms: _366  and  _367
REMARK  167  A    between atoms: _367  and  _368
REMARK  168  A    between atoms: _367  and  _370
REMARK  169  A    between atoms: _370  and  _371
REMARK  170  A    between atoms: _374  and  _375
REMARK  171  A    between atoms: _375  and  _376
REMARK  172  A    between atoms: _375  and  _378
REMARK  173  A    between atoms: _378  and  _379
REMARK  174  A    between atoms: _379  and  _380
REMARK  175  A    between atoms: _380  and  _381
REMARK  176  A    between atoms: _385  and  _386
REMARK  177  A    between atoms: _386  and  _387
REMARK  178  A    between atoms: _386  and  _389
REMARK  179  A    between atoms: _389  and  _390
REMARK  180  A    between atoms: _397  and  _398
REMARK  181  A    between atoms: _398  and  _399
REMARK  182  A    between atoms: _398  and  _401
REMARK  183  A    between atoms: _401  and  _402
REMARK  184  A    between atoms: _402  and  _403
REMARK  185  A    between atoms: _406  and  _407
REMARK  186  A    between atoms: _407  and  _408
REMARK  187  A    between atoms: _407  and  _410
REMARK  188  A    between atoms: _412  and  _413
REMARK  189  A    between atoms: _413  and  _414
REMARK  190  A    between atoms: _413  and  _416
REMARK  191  A    between atoms: _416  and  _417
REMARK  192  A    between atoms: _420  and  _421
REMARK  193  A    between atoms: _421  and  _422
REMARK  194  A    between atoms: _421  and  _424
REMARK  195  A    between atoms: _427  and  _428
REMARK  196  A    between atoms: _428  and  _429
REMARK  197  A    between atoms: _428  and  _431
REMARK  198  A    between atoms: _431  and  _432
REMARK  199  A    between atoms: _436  and  _437
REMARK  200  A    between atoms: _442  and  _443
REMARK  201  A    between atoms: _443  and  _444
REMARK  202  A    between atoms: _443  and  _446
REMARK  203  A    between atoms: _448  and  _449
REMARK  204  A    between atoms: _449  and  _450
REMARK  205  A    between atoms: _449  and  _452
REMARK  206  A    between atoms: _452  and  _453
REMARK  207  A    between atoms: _453  and  _454
REMARK  208  A    between atoms: _454  and  _455
REMARK  209  A    between atoms: _457  and  _458
REMARK  210  A    between atoms: _458  and  _459
REMARK  211  A    between atoms: _458  and  _461
REMARK  212  A    between atoms: _461  and  _462
REMARK  213  A    between atoms: _465  and  _466
REMARK  214  A    between atoms: _466  and  _467
REMARK  215  A    between atoms: _466  and  _469
REMARK  216  A    between atoms: _469  and  _470
REMARK  217  A    between atoms: _473  and  _474
REMARK  218  A    between atoms: _474  and  _475
REMARK  219  A    between atoms: _474  and  _477
REMARK  220  A    between atoms: _479  and  _480
REMARK  221  A    between atoms: _480  and  _481
REMARK  222  A    between atoms: _483  and  _484
REMARK  223  A    between atoms: _484  and  _485
REMARK  224  A    between atoms: _484  and  _487
REMARK  225  A    between atoms: _487  and  _488
REMARK  226  A    between atoms: _488  and  _489
REMARK  227  A    between atoms: _489  and  _490
REMARK  228  A    between atoms: _492  and  _493
REMARK  229  A    between atoms: _493  and  _494
REMARK  230  A    between atoms: _493  and  _496
REMARK  231  A    between atoms: _496  and  _497
REMARK  232  A    between atoms: _497  and  _498
REMARK  233  A    between atoms: _501  and  _502
REMARK  234  A    between atoms: _502  and  _503
REMARK  235  A    between atoms: _502  and  _505
REMARK  236  A    between atoms: _505  and  _506
REMARK  237  A    between atoms: _509  and  _510
REMARK  238  A    between atoms: _510  and  _511
REMARK  239  A    between atoms: _510  and  _513
REMARK  240  A    between atoms: _513  and  _514
REMARK  241  A    between atoms: _519  and  _520
REMARK  242  A    between atoms: _520  and  _521
REMARK  243  A    between atoms: _520  and  _523
REMARK  244  A    between atoms: _523  and  _524
REMARK  245  A    between atoms: _527  and  _528
REMARK  246  A    between atoms: _528  and  _529
REMARK  247  A    between atoms: _528  and  _531
REMARK  248  A    between atoms: _531  and  _532
REMARK  249  A    between atoms: _535  and  _536
REMARK  250  A    between atoms: _536  and  _537
REMARK  251  A    between atoms: _536  and  _539
REMARK  252  A    between atoms: _539  and  _540
REMARK  253  A    between atoms: _543  and  _544
REMARK  254  A    between atoms: _544  and  _545
REMARK  255  A    between atoms: _544  and  _547
REMARK  256  A    between atoms: _547  and  _548
REMARK  257  A    between atoms: _552  and  _553
REMARK  258  A    between atoms: _558  and  _559
REMARK  259  A    between atoms: _559  and  _560
REMARK  260  A    between atoms: _559  and  _562
REMARK  261  A    between atoms: _562  and  _563
REMARK  262  A    between atoms: _566  and  _567
REMARK  263  A    between atoms: _567  and  _568
REMARK  264  A    between atoms: _567  and  _570
REMARK  265  A    between atoms: _570  and  _571
REMARK  266  A    between atoms: _571  and  _572
REMARK  267  A    between atoms: _572  and  _573
REMARK  268  A    between atoms: _575  and  _576
REMARK  269  A    between atoms: _576  and  _577
REMARK  270  A    between atoms: _576  and  _579
REMARK  271  A    between atoms: _579  and  _580
REMARK  272  A    between atoms: _580  and  _581
REMARK  273  A    between atoms: _584  and  _585
REMARK  274  A    between atoms: _585  and  _586
REMARK  275  A    between atoms: _585  and  _588
REMARK  276  A    between atoms: _588  and  _589
REMARK  277  A    between atoms: _592  and  _593
REMARK  278  A    between atoms: _593  and  _594
REMARK  279  A    between atoms: _593  and  _596
REMARK  280  A    between atoms: _596  and  _597
REMARK  281  A    between atoms: _597  and  _598
REMARK  282  A    between atoms: _598  and  _599
REMARK  283  A    between atoms: _603  and  _604
REMARK  284  A    between atoms: _604  and  _605
REMARK  285  A    between atoms: _604  and  _607
REMARK  286  A    between atoms: _610  and  _611
REMARK  287  A    between atoms: _611  and  _612
REMARK  288  A    between atoms: _611  and  _614
REMARK  289  A    between atoms: _614  and  _615
REMARK  290  A    between atoms: _618  and  _619
REMARK  291  A    between atoms: _619  and  _620
REMARK  292  A    between atoms: _619  and  _622
REMARK  293  A    between atoms: _625  and  _626
REMARK  294  A    between atoms: _626  and  _627
REMARK  295  A    between atoms: _626  and  _629
REMARK  296  A    between atoms: _629  and  _630
REMARK  297  A    between atoms: _633  and  _634
REMARK  298  A    between atoms: _634  and  _635
REMARK  299  A    between atoms: _634  and  _637
REMARK  300  A    between atoms: _640  and  _641
REMARK  301  A    between atoms: _641  and  _642
REMARK  302  A    between atoms: _641  and  _644
REMARK  303  A    between atoms: _644  and  _645
REMARK  304  A    between atoms: _648  and  _649
REMARK  305  A    between atoms: _649  and  _650
REMARK  306  A    between atoms: _649  and  _652
REMARK  307  A    between atoms: _655  and  _656
REMARK  308  A    between atoms: _656  and  _657
REMARK  309  A    between atoms: _659  and  _660
REMARK  310  A    between atoms: _660  and  _661
REMARK  311  A    between atoms: _660  and  _663
REMARK  312  A    between atoms: _663  and  _664
REMARK  313  A    between atoms: _667  and  _668
REMARK  314  A    between atoms: _668  and  _669
REMARK  315  A    between atoms: _671  and  _672
REMARK  316  A    between atoms: _672  and  _673
REMARK  317  A    between atoms: _672  and  _675
REMARK  318  A    between atoms: _675  and  _676
REMARK  319  A    between atoms: _676  and  _677
REMARK  320  A    between atoms: _679  and  _680
REMARK  321  A    between atoms: _680  and  _681
REMARK  322  A    between atoms: _680  and  _683
REMARK  323  A    between atoms: _686  and  _687
REMARK  324  A    between atoms: _687  and  _688
REMARK  325  A    between atoms: _687  and  _690
REMARK  326  A    between atoms: _690  and  _691
REMARK  327  A    between atoms: _691  and  _692
REMARK  328  A    between atoms: _692  and  _693
REMARK  329  A    between atoms: _695  and  _696
REMARK  330  A    between atoms: _696  and  _697
REMARK  331  A    between atoms: _700  and  _701
REMARK  332  A    between atoms: _701  and  _702
REMARK  333  A    between atoms: _701  and  _704
REMARK  334  A    between atoms: _704  and  _705
REMARK  335  A    between atoms: _708  and  _709
REMARK  336  A    between atoms: _709  and  _710
REMARK  337  A    between atoms: _709  and  _712
REMARK  338  A    between atoms: _712  and  _713
REMARK  339  A    between atoms: _716  and  _717
REMARK  340  A    between atoms: _717  and  _720
REMARK  341  A    between atoms: _720  and  _721
REMARK  342  A    between atoms: _733  and  _734
REMARK  343  A    between atoms: _733  and  _735
REMARK  344  A    between atoms: _741  and  _744
REMARK  345  A    between atoms: _744  and  _745
REMARK  346  A    between atoms: _758  and  _759
REMARK  347  A    between atoms: _758  and  _761
REMARK  348  A    between atoms: _759  and  _760
REMARK  349  A    between atoms: _765  and  _766
REMARK  350  A    between atoms: _768  and  _769
REMARK  351  A    between atoms: _769  and  _770
REMARK  352  A    between atoms: _769  and  _772
REMARK  353  A    between atoms: _775  and  _776
REMARK  354  A    between atoms: _776  and  _777
REMARK  355  A    between atoms: _776  and  _779
REMARK  356  A    between atoms: _779  and  _780
REMARK  357  A    between atoms: _783  and  _784
REMARK  358  A    between atoms: _784  and  _785
REMARK  359  A    between atoms: _788  and  _789
REMARK  360  A    between atoms: _789  and  _790
REMARK  361  A    between atoms: _789  and  _792
REMARK  362  A    between atoms: _792  and  _793
REMARK  363  A    between atoms: _793  and  _794
REMARK  364  A    between atoms: _794  and  _795
REMARK  365  A    between atoms: _797  and  _798
REMARK  366  A    between atoms: _798  and  _799
REMARK  367  A    between atoms: _798  and  _801
REMARK  368  A    between atoms: _803  and  _804
REMARK  369  A    between atoms: _804  and  _805
REMARK  370  A    between atoms: _807  and  _808
REMARK  371  A    between atoms: _808  and  _809
REMARK  372  A    between atoms: _808  and  _811
REMARK  373  A    between atoms: _814  and  _815
REMARK  374  A    between atoms: _815  and  _816
REMARK  375  A    between atoms: _815  and  _818
REMARK  376  A    between atoms: _818  and  _819
REMARK  377  A    between atoms: _819  and  _820
REMARK  378  A    between atoms: _820  and  _821
REMARK  379  A    between atoms: _823  and  _824
REMARK  380  A    between atoms: _824  and  _825
REMARK  381  A    between atoms: _828  and  _829
REMARK  382  A    between atoms: _829  and  _830
REMARK  383  A    between atoms: _829  and  _832
REMARK  384  A    between atoms: _832  and  _833
REMARK  385  A    between atoms: _839  and  _840
REMARK  386  A    between atoms: _840  and  _841
REMARK  387  A    between atoms: _840  and  _843
REMARK  388  A    between atoms: _843  and  _844
REMARK  389  A    between atoms: _844  and  _845
REMARK  390  A    between atoms: _847  and  _848
REMARK  391  A    between atoms: _848  and  _849
REMARK  392  A    between atoms: _848  and  _851
REMARK  393  A    between atoms: _851  and  _852
REMARK  394  A    between atoms: _852  and  _853
REMARK  395  A    between atoms: _856  and  _857
REMARK  396  A    between atoms: _857  and  _858
REMARK  397  A    between atoms: _861  and  _862
REMARK  398  A    between atoms: _862  and  _863
REMARK  399  A    between atoms: _862  and  _865
REMARK  400  A    between atoms: _865  and  _866
REMARK  401  A    between atoms: _869  and  _870
REMARK  402  A    between atoms: _870  and  _871
REMARK  403  A    between atoms: _870  and  _873
REMARK  404  A    between atoms: _873  and  _874
REMARK  405  A    between atoms: _874  and  _875
REMARK  406  A    between atoms: _878  and  _879
REMARK  407  A    between atoms: _879  and  _880
REMARK  408  A    between atoms: _883  and  _884
REMARK  409  A    between atoms: _884  and  _885
REMARK  410  A    between atoms: _887  and  _888
REMARK  411  A    between atoms: _888  and  _889
REMARK  412  A    between atoms: _892  and  _893
REMARK  413  A    between atoms: _893  and  _894
REMARK  414  A    between atoms: _893  and  _896
REMARK  415  A    between atoms: _896  and  _897
REMARK  416  A    between atoms: _900  and  _901
REMARK  417  A    between atoms: _901  and  _902
REMARK  418  A    between atoms: _901  and  _904
REMARK  419  A    between atoms: _904  and  _905
REMARK  420  A    between atoms: _908  and  _909
REMARK  421  A    between atoms: _909  and  _910
REMARK  422  A    between atoms: _909  and  _912
REMARK  423  A    between atoms: _914  and  _915
REMARK  424  A    between atoms: _915  and  _916
REMARK  425  A    between atoms: _915  and  _918
REMARK  426  A    between atoms: _918  and  _919
REMARK  427  A    between atoms: _919  and  _920
REMARK  428  A    between atoms: _922  and  _923
REMARK  429  A    between atoms: _923  and  _924
REMARK  430  A    between atoms: _923  and  _926
REMARK  431  A    between atoms: _926  and  _927
REMARK  432  A    between atoms: _930  and  _931
REMARK  433  A    between atoms: _931  and  _932
REMARK  434  A    between atoms: _934  and  _935
REMARK  435  A    between atoms: _935  and  _936
REMARK  436  A    between atoms: _935  and  _938
REMARK  437  A    between atoms: _938  and  _939
REMARK  438  A    between atoms: _939  and  _940
REMARK  439  A    between atoms: _943  and  _944
REMARK  440  A    between atoms: _944  and  _945
REMARK  441  A    between atoms: _944  and  _947
REMARK  442  A    between atoms: _947  and  _948
REMARK  443  A    between atoms: _954  and  _955
REMARK  444  A    between atoms: _955  and  _956
REMARK  445  A    between atoms: _958  and  _959
REMARK  446  A    between atoms: _959  and  _960
REMARK  447  A    between atoms: _959  and  _962
REMARK  448  A    between atoms: _965  and  _966
REMARK  449  A    between atoms: _966  and  _967
REMARK  450  A    between atoms: _969  and  _970
REMARK  451  A    between atoms: _970  and  _971
REMARK  452  A    between atoms: _970  and  _973
REMARK  453  A    between atoms: _973  and  _974
REMARK  454  A    between atoms: _980  and  _981
REMARK  455  A    between atoms: _981  and  _982
REMARK  456  A    between atoms: _981  and  _984
REMARK  457  A    between atoms: _984  and  _985
REMARK  458  A    between atoms: _992  and  _993
REMARK  459  A    between atoms: _993  and  _994
REMARK  460  A    between atoms: _993  and  _996
REMARK  461  A    between atoms: _998  and  _999
REMARK  462  A    between atoms: _999  and  _1000
REMARK  463  A    between atoms: _1003  and  _1004
REMARK  464  A    between atoms: _1004  and  _1005
REMARK  465  A    between atoms: _1004  and  _1007
REMARK  466  A    between atoms: _1007  and  _1008
REMARK  467  A    between atoms: _1015  and  _1016
REMARK  468  A    between atoms: _1016  and  _1017
REMARK  469  A    between atoms: _1016  and  _1019
REMARK  470  A    between atoms: _1019  and  _1020
REMARK  471  A    between atoms: _1023  and  _1024
REMARK  472  A    between atoms: _1024  and  _1025
REMARK  473  A    between atoms: _1024  and  _1027
REMARK  474  A    between atoms: _1030  and  _1031
REMARK  475  A    between atoms: _1031  and  _1032
REMARK  476  A    between atoms: _1035  and  _1036
REMARK  477  A    between atoms: _1036  and  _1037
REMARK  478  A    between atoms: _1036  and  _1039
REMARK  479  A    between atoms: _1039  and  _1040
REMARK  480  A    between atoms: _1040  and  _1041
REMARK  481  A    between atoms: _1044  and  _1045
REMARK  482  A    between atoms: _1045  and  _1046
REMARK  483  A    between atoms: _1045  and  _1048
REMARK  484  A    between atoms: _1048  and  _1049
REMARK  485  A    between atoms: _1049  and  _1050
REMARK  486  A    between atoms: _1050  and  _1051
REMARK  487  A    between atoms: _1053  and  _1054
REMARK  488  A    between atoms: _1054  and  _1055
REMARK  489  A    between atoms: _1054  and  _1057
REMARK  490  A    between atoms: _1060  and  _1061
REMARK  491  A    between atoms: _1061  and  _1062
REMARK  492  A    between atoms: _1061  and  _1064
REMARK  493  A    between atoms: _1067  and  _1068
REMARK  494  A    between atoms: _1068  and  _1069
REMARK  495  A    between atoms: _1068  and  _1071
REMARK  496  A    between atoms: _1074  and  _1075
REMARK  497  A    between atoms: _1075  and  _1076
REMARK  498  A    between atoms: _1075  and  _1078
REMARK  499  A    between atoms: _1078  and  _1079
REMARK  500  A    between atoms: _1082  and  _1083
REMARK  501  A    between atoms: _1083  and  _1084
REMARK  502  A    between atoms: _1083  and  _1086
REMARK  503  A    between atoms: _1089  and  _1090
REMARK  504  A    between atoms: _1090  and  _1091
REMARK  505  A    between atoms: _1090  and  _1093
REMARK  506  A    between atoms: _1093  and  _1094
REMARK  507  A    between atoms: _1094  and  _1095
REMARK  508  A    between atoms: _1095  and  _1096
REMARK  509  A    between atoms: _1098  and  _1099
REMARK  510  A    between atoms: _1099  and  _1100
REMARK  511  A    between atoms: _1099  and  _1102
REMARK  512  A    between atoms: _1102  and  _1103
REMARK  513  A    between atoms: _1108  and  _1109
REMARK  514  A    between atoms: _1109  and  _1110
REMARK  515  A    between atoms: _1109  and  _1112
REMARK  516  A    between atoms: _1112  and  _1113
REMARK  517  A    between atoms: _1116  and  _1117
REMARK  518  A    between atoms: _1117  and  _1118
REMARK  519  A    between atoms: _1117  and  _1120
REMARK  520  A    between atoms: _1120  and  _1121
REMARK  521  A    between atoms: _1124  and  _1125
REMARK  522  A    between atoms: _1125  and  _1126
REMARK  523  A    between atoms: _1125  and  _1128
REMARK  524  A    between atoms: _1128  and  _1129
REMARK  525  A    between atoms: _1132  and  _1133
REMARK  526  A    between atoms: _1133  and  _1134
REMARK  527  A    between atoms: _1133  and  _1136
REMARK  528  A    between atoms: _1136  and  _1137
REMARK  529  A    between atoms: _1137  and  _1138
REMARK  530  A    between atoms: _1141  and  _1142
REMARK  531  A    between atoms: _1142  and  _1143
REMARK  532  A    between atoms: _1142  and  _1145
REMARK  533  A    between atoms: _1145  and  _1146
REMARK  534  A    between atoms: _1146  and  _1147
REMARK  535  A    between atoms: _1150  and  _1151
REMARK  536  A    between atoms: _1151  and  _1152
REMARK  537  A    between atoms: _1151  and  _1154
REMARK  538  A    between atoms: _1154  and  _1155
REMARK  539  A    between atoms: _1162  and  _1163
REMARK  540  A    between atoms: _1163  and  _1164
REMARK  541  A    between atoms: _1167  and  _1168
REMARK  542  A    between atoms: _1168  and  _1169
REMARK  543  A    between atoms: _1168  and  _1171
REMARK  544  A    between atoms: _1171  and  _1172
REMARK  545  A    between atoms: _1181  and  _1182
REMARK  546  A    between atoms: _1182  and  _1183
REMARK  547  A    between atoms: _1182  and  _1185
REMARK  548  A    between atoms: _1185  and  _1186
REMARK  549  A    between atoms: _1186  and  _1187
REMARK  550  A    between atoms: _1190  and  _1191
REMARK  551  A    between atoms: _1191  and  _1192
REMARK  552  A    between atoms: _1191  and  _1194
REMARK  553  A    between atoms: _1196  and  _1197
REMARK  554  A    between atoms: _1197  and  _1198
REMARK  555  A    between atoms: _1197  and  _1200
REMARK  556  A    between atoms: _1202  and  _1203
REMARK  557  A    between atoms: _1203  and  _1204
REMARK  558  A    between atoms: _1207  and  _1208
REMARK  559  A    between atoms: _1208  and  _1209
REMARK  560  A    between atoms: _1211  and  _1212
REMARK  561  A    between atoms: _1212  and  _1213
REMARK  562  A    between atoms: _1215  and  _1216
REMARK  563  A    between atoms: _1216  and  _1217
REMARK  564  A    between atoms: _1216  and  _1219
REMARK  565  A    between atoms: _1221  and  _1222
REMARK  566  A    between atoms: _1222  and  _1223
REMARK  567  A    between atoms: _1222  and  _1225
REMARK  568  A    between atoms: _1225  and  _1226
REMARK  569  A    between atoms: _1232  and  _1233
REMARK  570  A    between atoms: _1233  and  _1234
REMARK  571  A    between atoms: _1233  and  _1236
REMARK  572  A    between atoms: _1239  and  _1240
REMARK  573  A    between atoms: _1240  and  _1241
REMARK  574  A    between atoms: _1240  and  _1243
REMARK  575  A    between atoms: _1247  and  _1249
REMARK  576  A    between atoms: _1247  and  _1252
REMARK  577  A    between atoms: _1251  and  _1252
REMARK  578  A    between atoms: _1251  and  _1254
REMARK  579  A    between atoms: _1253  and  _1254
REMARK  580  A    between atoms: _1253  and  _1256
REMARK  581  A    between atoms: _1254  and  _1255
REMARK  582  A    between atoms: _1255  and  _1257
REMARK  583  A    between atoms: _1256  and  _1258
REMARK  584  A    between atoms: _1265  and  _1266
REMARK  585  A    between atoms: _1266  and  _1267
REMARK  586  A    between atoms: _1266  and  _1269
REMARK  587  A    between atoms: _1272  and  _1273
REMARK  588  A    between atoms: _1273  and  _1274
REMARK  589  A    between atoms: _1273  and  _1276
REMARK  590  A    between atoms: _1276  and  _1277
REMARK  591  A    between atoms: _1280  and  _1281
REMARK  592  A    between atoms: _1281  and  _1282
REMARK  593  A    between atoms: _1281  and  _1284
REMARK  594  A    between atoms: _1287  and  _1288
REMARK  595  A    between atoms: _1288  and  _1289
REMARK  596  A    between atoms: _1291  and  _1292
REMARK  597  A    between atoms: _1292  and  _1293
REMARK  598  A    between atoms: _1292  and  _1295
REMARK  599  A    between atoms: _1295  and  _1296
REMARK  600  A    between atoms: _1296  and  _1297
REMARK  601  A    between atoms: _1301  and  _1302
REMARK  602  A    between atoms: _1307  and  _1308
REMARK  603  A    between atoms: _1308  and  _1309
REMARK  604  A    between atoms: _1308  and  _1311
REMARK  605  A    between atoms: _1311  and  _1312
REMARK  606  A    between atoms: _1312  and  _1313
REMARK  607  A    between atoms: _1315  and  _1316
REMARK  608  A    between atoms: _1316  and  _1317
REMARK  609  A    between atoms: _1319  and  _1320
REMARK  610  A    between atoms: _1320  and  _1321
REMARK  611  A    between atoms: _1320  and  _1323
REMARK  612  A    between atoms: _1323  and  _1324
REMARK  613  A    between atoms: _1324  and  _1325
REMARK  614  A    between atoms: _1325  and  _1326
REMARK  615  A    between atoms: _1330  and  _1331
REMARK  616  A    between atoms: _1331  and  _1332
REMARK  617  A    between atoms: _1334  and  _1335
REMARK  618  A    between atoms: _1335  and  _1336
REMARK  619  A    between atoms: _1335  and  _1338
REMARK  620  A    between atoms: _1341  and  _1342
REMARK  621  A    between atoms: _1342  and  _1343
REMARK  622  A    between atoms: _1342  and  _1345
REMARK  623  A    between atoms: _1345  and  _1346
REMARK  624  A    between atoms: _1346  and  _1347
REMARK  625  A    between atoms: _1347  and  _1348
REMARK  626  A    between atoms: _1350  and  _1351
REMARK  627  A    between atoms: _1351  and  _1352
REMARK  628  A    between atoms: _1351  and  _1354
REMARK  629  A    between atoms: _1357  and  _1358
REMARK  630  A    between atoms: _1358  and  _1359
REMARK  631  A    between atoms: _1358  and  _1361
REMARK  632  A    between atoms: _1361  and  _1362
REMARK  633  A    between atoms: _1365  and  _1366
REMARK  634  A    between atoms: _1366  and  _1367
REMARK  635  A    between atoms: _1366  and  _1369
REMARK  636  A    between atoms: _1369  and  _1370
REMARK  637  A    between atoms: _1373  and  _1374
REMARK  638  A    between atoms: _1374  and  _1375
REMARK  639  A    between atoms: _1374  and  _1377
REMARK  640  A    between atoms: _1377  and  _1378
REMARK  641  A    between atoms: _1383  and  _1384
REMARK  642  A    between atoms: _1384  and  _1385
REMARK  643  A    between atoms: _1384  and  _1387
REMARK  644  A    between atoms: _1387  and  _1388
REMARK  645  A    between atoms: _1391  and  _1392
REMARK  646  A    between atoms: _1392  and  _1393
REMARK  647  A    between atoms: _1392  and  _1395
REMARK  648  A    between atoms: _1395  and  _1396
REMARK  649  A    between atoms: _1396  and  _1397
REMARK  650  A    between atoms: _1397  and  _1398
REMARK  651  A    between atoms: _1400  and  _1401
REMARK  652  A    between atoms: _1401  and  _1402
REMARK  653  A    between atoms: _1401  and  _1404
REMARK  654  A    between atoms: _1404  and  _1405
REMARK  655  A    between atoms: _1405  and  _1406
REMARK  656  A    between atoms: _1409  and  _1410
REMARK  657  A    between atoms: _1410  and  _1411
REMARK  658  A    between atoms: _1410  and  _1413
REMARK  659  A    between atoms: _1413  and  _1414
REMARK  660  A    between atoms: _1417  and  _1418
REMARK  661  A    between atoms: _1418  and  _1419
REMARK  662  A    between atoms: _1418  and  _1421
REMARK  663  A    between atoms: _1421  and  _1422
REMARK  664  A    between atoms: _1422  and  _1423
REMARK  665  A    between atoms: _1426  and  _1427
REMARK  666  A    between atoms: _1427  and  _1428
REMARK  667  A    between atoms: _1427  and  _1430
REMARK  668  A    between atoms: _1433  and  _1434
REMARK  669  A    between atoms: _1434  and  _1435
REMARK  670  A    between atoms: _1434  and  _1437
REMARK  671  A    between atoms: _1437  and  _1438
REMARK  672  A    between atoms: _1438  and  _1439
REMARK  673  A    between atoms: _1442  and  _1443
REMARK  674  A    between atoms: _1443  and  _1444
REMARK  675  A    between atoms: _1443  and  _1446
REMARK  676  A    between atoms: _1446  and  _1447
REMARK  677  A    between atoms: _1454  and  _1455
REMARK  678  A    between atoms: _1455  and  _1456
REMARK  679  A    between atoms: _1455  and  _1458
REMARK  680  A    between atoms: _1458  and  _1459
REMARK  681  A    between atoms: _1462  and  _1463
REMARK  682  A    between atoms: _1463  and  _1464
REMARK  683  A    between atoms: _1463  and  _1466
REMARK  684  A    between atoms: _1466  and  _1467
REMARK  685  A    between atoms: _1467  and  _1468
REMARK  686  A    between atoms: _1471  and  _1472
REMARK  687  A    between atoms: _1472  and  _1473
REMARK  688  A    between atoms: _1472  and  _1475
REMARK  689  A    between atoms: _1475  and  _1476
REMARK  690  A    between atoms: _1476  and  _1477
REMARK  691  A    between atoms: _1480  and  _1481
REMARK  692  A    between atoms: _1481  and  _1482
REMARK  693  A    between atoms: _1481  and  _1484
REMARK  694  A    between atoms: _1484  and  _1485
REMARK  695  A    between atoms: _1485  and  _1486
REMARK  696  A    between atoms: _1486  and  _1487
REMARK  697  A    between atoms: _1491  and  _1492
REMARK  698  A    between atoms: _1492  and  _1493
REMARK  699  A    between atoms: _1492  and  _1495
REMARK  700  A    between atoms: _1495  and  _1496
REMARK  701  A    between atoms: _1496  and  _1497
REMARK  702  A    between atoms: _1497  and  _1498
REMARK  703  A    between atoms: _1502  and  _1503
REMARK  704  A    between atoms: _1503  and  _1504
REMARK  705  A    between atoms: _1503  and  _1506
REMARK  706  A    between atoms: _1506  and  _1507
REMARK  707  A    between atoms: _1510  and  _1511
REMARK  708  A    between atoms: _1511  and  _1512
REMARK  709  A    between atoms: _1511  and  _1514
REMARK  710  A    between atoms: _1514  and  _1515
REMARK  711  A    between atoms: _1515  and  _1516
REMARK  712  A    between atoms: _1516  and  _1517
REMARK  713  A    between atoms: _1519  and  _1520
REMARK  714  A    between atoms: _1520  and  _1521
REMARK  715  A    between atoms: _1520  and  _1523
REMARK  716  A    between atoms: _1523  and  _1524
REMARK  717  A    between atoms: _1524  and  _1525
REMARK  718  A    between atoms: _1528  and  _1529
REMARK  719  A    between atoms: _1529  and  _1530
REMARK  720  A    between atoms: _1529  and  _1532
REMARK  721  A    between atoms: _1532  and  _1533
REMARK  722  A    between atoms: _1536  and  _1537
REMARK  723  A    between atoms: _1537  and  _1538
REMARK  724  A    between atoms: _1537  and  _1540
REMARK  725  A    between atoms: _1543  and  _1544
REMARK  726  A    between atoms: _1544  and  _1545
REMARK  727  A    between atoms: _1544  and  _1547
REMARK  728  A    between atoms: _1547  and  _1548
REMARK  729  A    between atoms: _1548  and  _1549
REMARK  730  A    between atoms: _1549  and  _1550
REMARK  731  A    between atoms: _1552  and  _1553
REMARK  732  A    between atoms: _1553  and  _1554
REMARK  733  A    between atoms: _1553  and  _1556
REMARK  734  A    between atoms: _1556  and  _1557
REMARK  735  A    between atoms: _1557  and  _1558
REMARK  736  A    between atoms: _1558  and  _1559
REMARK  737  A    between atoms: _1561  and  _1562
REMARK  738  A    between atoms: _1562  and  _1563
REMARK  739  A    between atoms: _1562  and  _1565
REMARK  740  A    between atoms: _1565  and  _1566
REMARK  741  A    between atoms: _1571  and  _1572
REMARK  742  A    between atoms: _1572  and  _1573
REMARK  743  A    between atoms: _1572  and  _1575
REMARK  744  A    between atoms: _1577  and  _1578
REMARK  745  A    between atoms: _1578  and  _1579
REMARK  746  A    between atoms: _1578  and  _1581
REMARK  747  A    between atoms: _1581  and  _1582
REMARK  748  A    between atoms: _1582  and  _1583
REMARK  749  A    between atoms: _1586  and  _1587
REMARK  750  A    between atoms: _1587  and  _1588
REMARK  751  A    between atoms: _1587  and  _1590
REMARK  752  A    between atoms: _1590  and  _1591
REMARK  753  A    between atoms: _1597  and  _1598
REMARK  754  A    between atoms: _1598  and  _1599
REMARK  755  A    between atoms: _1598  and  _1601
REMARK  756  A    between atoms: _1601  and  _1602
REMARK  757  A    between atoms: _1605  and  _1606
REMARK  758  A    between atoms: _1606  and  _1607
REMARK  759  A    between atoms: _1609  and  _1610
REMARK  760  A    between atoms: _1610  and  _1611
REMARK  761  A    between atoms: _1610  and  _1613
REMARK  762  A    between atoms: _1613  and  _1614
REMARK  763  A    between atoms: _1622  and  _1623
REMARK  764  A    between atoms: _1628  and  _1629
REMARK  765  A    between atoms: _1629  and  _1630
REMARK  766  A    between atoms: _1629  and  _1632
REMARK  767  A    between atoms: _1632  and  _1633
REMARK  768  A    between atoms: _1636  and  _1637
REMARK  769  A    between atoms: _1637  and  _1638
REMARK  770  A    between atoms: _1637  and  _1640
REMARK  771  A    between atoms: _1643  and  _1644
REMARK  772  A    between atoms: _1644  and  _1645
REMARK  773  A    between atoms: _1644  and  _1647
REMARK  774  A    between atoms: _1647  and  _1648
REMARK  775  A    between atoms: _1651  and  _1652
REMARK  776  A    between atoms: _1652  and  _1653
REMARK  777  A    between atoms: _1652  and  _1655
REMARK  778  A    between atoms: _1655  and  _1656
REMARK  779  A    between atoms: _1662  and  _1663
REMARK  780  A    between atoms: _1663  and  _1664
REMARK  781  A    between atoms: _1663  and  _1666
REMARK  782  A    between atoms: _1669  and  _1670
REMARK  783  A    between atoms: _1670  and  _1671
REMARK  784  A    between atoms: _1670  and  _1673
REMARK  785  A    between atoms: _1673  and  _1674
REMARK  786  A    between atoms: _1674  and  _1675
REMARK                            x       y       z     vdW  Elec       q    Type
REMARK                         _______ _______ _______ _____ _____    ______ ____
ROOT
ATOM      1  N   UNL     1       6.115  11.989  27.130  0.00  0.00    +0.000 NA
ENDROOT
TORSDOF 0
REMARK  Name = /Users/mlugowska/PhD/ML_residence_time_prediction/protein_files/5J64_protein.pdb
REMARK  786 active torsions:
REMARK  status: ('A' for Active; 'I' for Inactive)
REMARK    1  A    between atoms: _2  and  _3
REMARK    2  A    between atoms: _2  and  _5
REMARK    3  A    between atoms: _5  and  _6
REMARK    4  A    between atoms: _6  and  _7
REMARK    5  A    between atoms: _10  and  _11
REMARK    6  A    between atoms: _11  and  _12
REMARK    7  A    between atoms: _11  and  _14
REMARK    8  A    between atoms: _17  and  _18
REMARK    9  A    between atoms: _18  and  _19
REMARK   10  A    between atoms: _18  and  _21
REMARK   11  A    between atoms: _21  and  _22
REMARK   12  A    between atoms: _22  and  _23
REMARK   13  A    between atoms: _26  and  _27
REMARK   14  A    between atoms: _27  and  _28
REMARK   15  A    between atoms: _27  and  _30
REMARK   16  A    between atoms: _33  and  _34
REMARK   17  A    between atoms: _34  and  _35
REMARK   18  A    between atoms: _34  and  _37
REMARK   19  A    between atoms: _37  and  _38
REMARK   20  A    between atoms: _44  and  _45
REMARK   21  A    between atoms: _45  and  _46
REMARK   22  A    between atoms: _49  and  _50
REMARK   23  A    between atoms: _50  and  _51
REMARK   24  A    between atoms: _50  and  _53
REMARK   25  A    between atoms: _53  and  _54
REMARK   26  A    between atoms: _60  and  _61
REMARK   27  A    between atoms: _61  and  _62
REMARK   28  A    between atoms: _61  and  _64
REMARK   29  A    between atoms: _64  and  _65
REMARK   30  A    between atoms: _65  and  _66
REMARK   31  A    between atoms: _69  and  _70
REMARK   32  A    between atoms: _70  and  _71
REMARK   33  A    between atoms: _74  and  _75
REMARK   34  A    between atoms: _75  and  _76
REMARK   35  A    between atoms: _75  and  _78
REMARK   36  A    between atoms: _78  and  _79
REMARK   37  A    between atoms: _79  and  _80
REMARK   38  A    between atoms: _83  and  _84
REMARK   39  A    between atoms: _84  and  _85
REMARK   40  A    between atoms: _84  and  _87
REMARK   41  A    between atoms: _87  and  _88
REMARK   42  A    between atoms: _91  and  _92
REMARK   43  A    between atoms: _92  and  _93
REMARK   44  A    between atoms: _96  and  _97
REMARK   45  A    between atoms: _97  and  _98
REMARK   46  A    between atoms: _97  and  _100
REMARK   47  A    between atoms: _100  and  _101
REMARK   48  A    between atoms: _101  and  _102
REMARK   49  A    between atoms: _105  and  _106
REMARK   50  A    between atoms: _106  and  _107
REMARK   51  A    between atoms: _106  and  _109
REMARK   52  A    between atoms: _109  and  _110
REMARK   53  A    between atoms: _113  and  _114
REMARK   54  A    between atoms: _114  and  _115
REMARK   55  A    between atoms: _114  and  _117
REMARK   56  A    between atoms: _117  and  _118
REMARK   57  A    between atoms: _118  and  _119
REMARK   58  A    between atoms: _121  and  _122
REMARK   59  A    between atoms: _122  and  _123
REMARK   60  A    between atoms: _122  and  _125
REMARK   61  A    between atoms: _127  and  _128
REMARK   62  A    between atoms: _128  and  _129
REMARK   63  A    between atoms: _128  and  _131
REMARK   64  A    between atoms: _131  and  _132
REMARK   65  A    between atoms: _135  and  _136
REMARK   66  A    between atoms: _136  and  _137
REMARK   67  A    between atoms: _136  and  _139
REMARK   68  A    between atoms: _139  and  _140
REMARK   69  A    between atoms: _143  and  _144
REMARK   70  A    between atoms: _144  and  _145
REMARK   71  A    between atoms: _144  and  _147
REMARK   72  A    between atoms: _147  and  _148
REMARK   73  A    between atoms: _151  and  _152
REMARK   74  A    between atoms: _152  and  _153
REMARK   75  A    between atoms: _152  and  _155
REMARK   76  A    between atoms: _155  and  _156
REMARK   77  A    between atoms: _159  and  _160
REMARK   78  A    between atoms: _160  and  _161
REMARK   79  A    between atoms: _160  and  _163
REMARK   80  A    between atoms: _166  and  _167
REMARK   81  A    between atoms: _167  and  _170
REMARK   82  A    between atoms: _170  and  _171
REMARK   83  A    between atoms: _181  and  _183
REMARK   84  A    between atoms: _183  and  _184
REMARK   85  A    between atoms: _189  and  _194
REMARK   86  A    between atoms: _192  and  _195
REMARK   87  A    between atoms: _193  and  _194
REMARK   88  A    between atoms: _195  and  _196
REMARK   89  A    between atoms: _201  and  _202
REMARK   90  A    between atoms: _202  and  _203
REMARK   91  A    between atoms: _202  and  _205
REMARK   92  A    between atoms: _207  and  _208
REMARK   93  A    between atoms: _208  and  _209
REMARK   94  A    between atoms: _208  and  _211
REMARK   95  A    between atoms: _211  and  _212
REMARK   96  A    between atoms: _215  and  _216
REMARK   97  A    between atoms: _216  and  _217
REMARK   98  A    between atoms: _216  and  _219
REMARK   99  A    between atoms: _219  and  _220
REMARK  100  A    between atoms: _220  and  _221
REMARK  101  A    between atoms: _221  and  _222
REMARK  102  A    between atoms: _224  and  _225
REMARK  103  A    between atoms: _225  and  _226
REMARK  104  A    between atoms: _225  and  _228
REMARK  105  A    between atoms: _228  and  _229
REMARK  106  A    between atoms: _229  and  _230
REMARK  107  A    between atoms: _233  and  _234
REMARK  108  A    between atoms: _234  and  _235
REMARK  109  A    between atoms: _234  and  _237
REMARK  110  A    between atoms: _237  and  _238
REMARK  111  A    between atoms: _241  and  _242
REMARK  112  A    between atoms: _242  and  _243
REMARK  113  A    between atoms: _242  and  _245
REMARK  114  A    between atoms: _245  and  _246
REMARK  115  A    between atoms: _252  and  _253
REMARK  116  A    between atoms: _253  and  _254
REMARK  117  A    between atoms: _253  and  _256
REMARK  118  A    between atoms: _256  and  _257
REMARK  119  A    between atoms: _260  and  _261
REMARK  120  A    between atoms: _261  and  _262
REMARK  121  A    between atoms: _261  and  _264
REMARK  122  A    between atoms: _264  and  _265
REMARK  123  A    between atoms: _265  and  _266
REMARK  124  A    between atoms: _266  and  _267
REMARK  125  A    between atoms: _271  and  _272
REMARK  126  A    between atoms: _272  and  _273
REMARK  127  A    between atoms: _272  and  _275
REMARK  128  A    between atoms: _275  and  _276
REMARK  129  A    between atoms: _276  and  _277
REMARK  130  A    between atoms: _280  and  _281
REMARK  131  A    between atoms: _281  and  _282
REMARK  132  A    between atoms: _281  and  _284
REMARK  133  A    between atoms: _284  and  _285
REMARK  134  A    between atoms: _288  and  _289
REMARK  135  A    between atoms: _289  and  _292
REMARK  136  A    between atoms: _292  and  _293
REMARK  137  A    between atoms: _309  and  _310
REMARK  138  A    between atoms: _309  and  _312
REMARK  139  A    between atoms: _312  and  _313
REMARK  140  A    between atoms: _316  and  _317
REMARK  141  A    between atoms: _317  and  _318
REMARK  142  A    between atoms: _317  and  _320
REMARK  143  A    between atoms: _322  and  _323
REMARK  144  A    between atoms: _323  and  _324
REMARK  145  A    between atoms: _323  and  _326
REMARK  146  A    between atoms: _328  and  _329
REMARK  147  A    between atoms: _329  and  _330
REMARK  148  A    between atoms: _329  and  _332
REMARK  149  A    between atoms: _332  and  _333
REMARK  150  A    between atoms: _336  and  _337
REMARK  151  A    between atoms: _337  and  _338
REMARK  152  A    between atoms: _341  and  _342
REMARK  153  A    between atoms: _342  and  _343
REMARK  154  A    between atoms: _342  and  _345
REMARK  155  A    between atoms: _345  and  _346
REMARK  156  A    between atoms: _349  and  _350
REMARK  157  A    between atoms: _350  and  _351
REMARK  158  A    between atoms: _350  and  _353
REMARK  159  A    between atoms: _353  and  _354
REMARK  160  A    between atoms: _357  and  _358
REMARK  161  A    between atoms: _358  and  _359
REMARK  162  A    between atoms: _358  and  _361
REMARK  163  A    between atoms: _361  and  _362
REMARK  164  A    between atoms: _362  and  _363
REMARK  165  A    between atoms: _363  and  _364
REMARK  166  A    between atoms: _366  and  _367
REMARK  167  A    between atoms: _367  and  _368
REMARK  168  A    between atoms: _367  and  _370
REMARK  169  A    between atoms: _370  and  _371
REMARK  170  A    between atoms: _374  and  _375
REMARK  171  A    between atoms: _375  and  _376
REMARK  172  A    between atoms: _375  and  _378
REMARK  173  A    between atoms: _378  and  _379
REMARK  174  A    between atoms: _379  and  _380
REMARK  175  A    between atoms: _380  and  _381
REMARK  176  A    between atoms: _385  and  _386
REMARK  177  A    between atoms: _386  and  _387
REMARK  178  A    between atoms: _386  and  _389
REMARK  179  A    between atoms: _389  and  _390
REMARK  180  A    between atoms: _397  and  _398
REMARK  181  A    between atoms: _398  and  _399
REMARK  182  A    between atoms: _398  and  _401
REMARK  183  A    between atoms: _401  and  _402
REMARK  184  A    between atoms: _402  and  _403
REMARK  185  A    between atoms: _406  and  _407
REMARK  186  A    between atoms: _407  and  _408
REMARK  187  A    between atoms: _407  and  _410
REMARK  188  A    between atoms: _412  and  _413
REMARK  189  A    between atoms: _413  and  _414
REMARK  190  A    between atoms: _413  and  _416
REMARK  191  A    between atoms: _416  and  _417
REMARK  192  A    between atoms: _420  and  _421
REMARK  193  A    between atoms: _421  and  _422
REMARK  194  A    between atoms: _421  and  _424
REMARK  195  A    between atoms: _427  and  _428
REMARK  196  A    between atoms: _428  and  _429
REMARK  197  A    between atoms: _428  and  _431
REMARK  198  A    between atoms: _431  and  _432
REMARK  199  A    between atoms: _436  and  _437
REMARK  200  A    between atoms: _442  and  _443
REMARK  201  A    between atoms: _443  and  _444
REMARK  202  A    between atoms: _443  and  _446
REMARK  203  A    between atoms: _448  and  _449
REMARK  204  A    between atoms: _449  and  _450
REMARK  205  A    between atoms: _449  and  _452
REMARK  206  A    between atoms: _452  and  _453
REMARK  207  A    between atoms: _453  and  _454
REMARK  208  A    between atoms: _454  and  _455
REMARK  209  A    between atoms: _457  and  _458
REMARK  210  A    between atoms: _458  and  _459
REMARK  211  A    between atoms: _458  and  _461
REMARK  212  A    between atoms: _461  and  _462
REMARK  213  A    between atoms: _465  and  _466
REMARK  214  A    between atoms: _466  and  _467
REMARK  215  A    between atoms: _466  and  _469
REMARK  216  A    between atoms: _469  and  _470
REMARK  217  A    between atoms: _473  and  _474
REMARK  218  A    between atoms: _474  and  _475
REMARK  219  A    between atoms: _474  and  _477
REMARK  220  A    between atoms: _479  and  _480
REMARK  221  A    between atoms: _480  and  _481
REMARK  222  A    between atoms: _483  and  _484
REMARK  223  A    between atoms: _484  and  _485
REMARK  224  A    between atoms: _484  and  _487
REMARK  225  A    between atoms: _487  and  _488
REMARK  226  A    between atoms: _488  and  _489
REMARK  227  A    between atoms: _489  and  _490
REMARK  228  A    between atoms: _492  and  _493
REMARK  229  A    between atoms: _493  and  _494
REMARK  230  A    between atoms: _493  and  _496
REMARK  231  A    between atoms: _496  and  _497
REMARK  232  A    between atoms: _497  and  _498
REMARK  233  A    between atoms: _501  and  _502
REMARK  234  A    between atoms: _502  and  _503
REMARK  235  A    between atoms: _502  and  _505
REMARK  236  A    between atoms: _505  and  _506
REMARK  237  A    between atoms: _509  and  _510
REMARK  238  A    between atoms: _510  and  _511
REMARK  239  A    between atoms: _510  and  _513
REMARK  240  A    between atoms: _513  and  _514
REMARK  241  A    between atoms: _519  and  _520
REMARK  242  A    between atoms: _520  and  _521
REMARK  243  A    between atoms: _520  and  _523
REMARK  244  A    between atoms: _523  and  _524
REMARK  245  A    between atoms: _527  and  _528
REMARK  246  A    between atoms: _528  and  _529
REMARK  247  A    between atoms: _528  and  _531
REMARK  248  A    between atoms: _531  and  _532
REMARK  249  A    between atoms: _535  and  _536
REMARK  250  A    between atoms: _536  and  _537
REMARK  251  A    between atoms: _536  and  _539
REMARK  252  A    between atoms: _539  and  _540
REMARK  253  A    between atoms: _543  and  _544
REMARK  254  A    between atoms: _544  and  _545
REMARK  255  A    between atoms: _544  and  _547
REMARK  256  A    between atoms: _547  and  _548
REMARK  257  A    between atoms: _552  and  _553
REMARK  258  A    between atoms: _558  and  _559
REMARK  259  A    between atoms: _559  and  _560
REMARK  260  A    between atoms: _559  and  _562
REMARK  261  A    between atoms: _562  and  _563
REMARK  262  A    between atoms: _566  and  _567
REMARK  263  A    between atoms: _567  and  _568
REMARK  264  A    between atoms: _567  and  _570
REMARK  265  A    between atoms: _570  and  _571
REMARK  266  A    between atoms: _571  and  _572
REMARK  267  A    between atoms: _572  and  _573
REMARK  268  A    between atoms: _575  and  _576
REMARK  269  A    between atoms: _576  and  _577
REMARK  270  A    between atoms: _576  and  _579
REMARK  271  A    between atoms: _579  and  _580
REMARK  272  A    between atoms: _580  and  _581
REMARK  273  A    between atoms: _584  and  _585
REMARK  274  A    between atoms: _585  and  _586
REMARK  275  A    between atoms: _585  and  _588
REMARK  276  A    between atoms: _588  and  _589
REMARK  277  A    between atoms: _592  and  _593
REMARK  278  A    between atoms: _593  and  _594
REMARK  279  A    between atoms: _593  and  _596
REMARK  280  A    between atoms: _596  and  _597
REMARK  281  A    between atoms: _597  and  _598
REMARK  282  A    between atoms: _598  and  _599
REMARK  283  A    between atoms: _603  and  _604
REMARK  284  A    between atoms: _604  and  _605
REMARK  285  A    between atoms: _604  and  _607
REMARK  286  A    between atoms: _610  and  _611
REMARK  287  A    between atoms: _611  and  _612
REMARK  288  A    between atoms: _611  and  _614
REMARK  289  A    between atoms: _614  and  _615
REMARK  290  A    between atoms: _618  and  _619
REMARK  291  A    between atoms: _619  and  _620
REMARK  292  A    between atoms: _619  and  _622
REMARK  293  A    between atoms: _625  and  _626
REMARK  294  A    between atoms: _626  and  _627
REMARK  295  A    between atoms: _626  and  _629
REMARK  296  A    between atoms: _629  and  _630
REMARK  297  A    between atoms: _633  and  _634
REMARK  298  A    between atoms: _634  and  _635
REMARK  299  A    between atoms: _634  and  _637
REMARK  300  A    between atoms: _640  and  _641
REMARK  301  A    between atoms: _641  and  _642
REMARK  302  A    between atoms: _641  and  _644
REMARK  303  A    between atoms: _644  and  _645
REMARK  304  A    between atoms: _648  and  _649
REMARK  305  A    between atoms: _649  and  _650
REMARK  306  A    between atoms: _649  and  _652
REMARK  307  A    between atoms: _655  and  _656
REMARK  308  A    between atoms: _656  and  _657
REMARK  309  A    between atoms: _659  and  _660
REMARK  310  A    between atoms: _660  and  _661
REMARK  311  A    between atoms: _660  and  _663
REMARK  312  A    between atoms: _663  and  _664
REMARK  313  A    between atoms: _667  and  _668
REMARK  314  A    between atoms: _668  and  _669
REMARK  315  A    between atoms: _671  and  _672
REMARK  316  A    between atoms: _672  and  _673
REMARK  317  A    between atoms: _672  and  _675
REMARK  318  A    between atoms: _675  and  _676
REMARK  319  A    between atoms: _676  and  _677
REMARK  320  A    between atoms: _679  and  _680
REMARK  321  A    between atoms: _680  and  _681
REMARK  322  A    between atoms: _680  and  _683
REMARK  323  A    between atoms: _686  and  _687
REMARK  324  A    between atoms: _687  and  _688
REMARK  325  A    between atoms: _687  and  _690
REMARK  326  A    between atoms: _690  and  _691
REMARK  327  A    between atoms: _691  and  _692
REMARK  328  A    between atoms: _692  and  _693
REMARK  329  A    between atoms: _695  and  _696
REMARK  330  A    between atoms: _696  and  _697
REMARK  331  A    between atoms: _700  and  _701
REMARK  332  A    between atoms: _701  and  _702
REMARK  333  A    between atoms: _701  and  _704
REMARK  334  A    between atoms: _704  and  _705
REMARK  335  A    between atoms: _708  and  _709
REMARK  336  A    between atoms: _709  and  _710
REMARK  337  A    between atoms: _709  and  _712
REMARK  338  A    between atoms: _712  and  _713
REMARK  339  A    between atoms: _716  and  _717
REMARK  340  A    between atoms: _717  and  _720
REMARK  341  A    between atoms: _720  and  _721
REMARK  342  A    between atoms: _733  and  _734
REMARK  343  A    between atoms: _733  and  _735
REMARK  344  A    between atoms: _741  and  _744
REMARK  345  A    between atoms: _744  and  _745
REMARK  346  A    between atoms: _758  and  _759
REMARK  347  A    between atoms: _758  and  _761
REMARK  348  A    between atoms: _759  and  _760
REMARK  349  A    between atoms: _765  and  _766
REMARK  350  A    between atoms: _768  and  _769
REMARK  351  A    between atoms: _769  and  _770
REMARK  352  A    between atoms: _769  and  _772
REMARK  353  A    between atoms: _775  and  _776
REMARK  354  A    between atoms: _776  and  _777
REMARK  355  A    between atoms: _776  and  _779
REMARK  356  A    between atoms: _779  and  _780
REMARK  357  A    between atoms: _783  and  _784
REMARK  358  A    between atoms: _784  and  _785
REMARK  359  A    between atoms: _788  and  _789
REMARK  360  A    between atoms: _789  and  _790
REMARK  361  A    between atoms: _789  and  _792
REMARK  362  A    between atoms: _792  and  _793
REMARK  363  A    between atoms: _793  and  _794
REMARK  364  A    between atoms: _794  and  _795
REMARK  365  A    between atoms: _797  and  _798
REMARK  366  A    between atoms: _798  and  _799
REMARK  367  A    between atoms: _798  and  _801
REMARK  368  A    between atoms: _803  and  _804
REMARK  369  A    between atoms: _804  and  _805
REMARK  370  A    between atoms: _807  and  _808
REMARK  371  A    between atoms: _808  and  _809
REMARK  372  A    between atoms: _808  and  _811
REMARK  373  A    between atoms: _814  and  _815
REMARK  374  A    between atoms: _815  and  _816
REMARK  375  A    between atoms: _815  and  _818
REMARK  376  A    between atoms: _818  and  _819
REMARK  377  A    between atoms: _819  and  _820
REMARK  378  A    between atoms: _820  and  _821
REMARK  379  A    between atoms: _823  and  _824
REMARK  380  A    between atoms: _824  and  _825
REMARK  381  A    between atoms: _828  and  _829
REMARK  382  A    between atoms: _829  and  _830
REMARK  383  A    between atoms: _829  and  _832
REMARK  384  A    between atoms: _832  and  _833
REMARK  385  A    between atoms: _839  and  _840
REMARK  386  A    between atoms: _840  and  _841
REMARK  387  A    between atoms: _840  and  _843
REMARK  388  A    between atoms: _843  and  _844
REMARK  389  A    between atoms: _844  and  _845
REMARK  390  A    between atoms: _847  and  _848
REMARK  391  A    between atoms: _848  and  _849
REMARK  392  A    between atoms: _848  and  _851
REMARK  393  A    between atoms: _851  and  _852
REMARK  394  A    between atoms: _852  and  _853
REMARK  395  A    between atoms: _856  and  _857
REMARK  396  A    between atoms: _857  and  _858
REMARK  397  A    between atoms: _861  and  _862
REMARK  398  A    between atoms: _862  and  _863
REMARK  399  A    between atoms: _862  and  _865
REMARK  400  A    between atoms: _865  and  _866
REMARK  401  A    between atoms: _869  and  _870
REMARK  402  A    between atoms: _870  and  _871
REMARK  403  A    between atoms: _870  and  _873
REMARK  404  A    between atoms: _873  and  _874
REMARK  405  A    between atoms: _874  and  _875
REMARK  406  A    between atoms: _878  and  _879
REMARK  407  A    between atoms: _879  and  _880
REMARK  408  A    between atoms: _883  and  _884
REMARK  409  A    between atoms: _884  and  _885
REMARK  410  A    between atoms: _887  and  _888
REMARK  411  A    between atoms: _888  and  _889
REMARK  412  A    between atoms: _892  and  _893
REMARK  413  A    between atoms: _893  and  _894
REMARK  414  A    between atoms: _893  and  _896
REMARK  415  A    between atoms: _896  and  _897
REMARK  416  A    between atoms: _900  and  _901
REMARK  417  A    between atoms: _901  and  _902
REMARK  418  A    between atoms: _901  and  _904
REMARK  419  A    between atoms: _904  and  _905
REMARK  420  A    between atoms: _908  and  _909
REMARK  421  A    between atoms: _909  and  _910
REMARK  422  A    between atoms: _909  and  _912
REMARK  423  A    between atoms: _914  and  _915
REMARK  424  A    between atoms: _915  and  _916
REMARK  425  A    between atoms: _915  and  _918
REMARK  426  A    between atoms: _918  and  _919
REMARK  427  A    between atoms: _919  and  _920
REMARK  428  A    between atoms: _922  and  _923
REMARK  429  A    between atoms: _923  and  _924
REMARK  430  A    between atoms: _923  and  _926
REMARK  431  A    between atoms: _926  and  _927
REMARK  432  A    between atoms: _930  and  _931
REMARK  433  A    between atoms: _931  and  _932
REMARK  434  A    between atoms: _934  and  _935
REMARK  435  A    between atoms: _935  and  _936
REMARK  436  A    between atoms: _935  and  _938
REMARK  437  A    between atoms: _938  and  _939
REMARK  438  A    between atoms: _939  and  _940
REMARK  439  A    between atoms: _943  and  _944
REMARK  440  A    between atoms: _944  and  _945
REMARK  441  A    between atoms: _944  and  _947
REMARK  442  A    between atoms: _947  and  _948
REMARK  443  A    between atoms: _954  and  _955
REMARK  444  A    between atoms: _955  and  _956
REMARK  445  A    between atoms: _958  and  _959
REMARK  446  A    between atoms: _959  and  _960
REMARK  447  A    between atoms: _959  and  _962
REMARK  448  A    between atoms: _965  and  _966
REMARK  449  A    between atoms: _966  and  _967
REMARK  450  A    between atoms: _969  and  _970
REMARK  451  A    between atoms: _970  and  _971
REMARK  452  A    between atoms: _970  and  _973
REMARK  453  A    between atoms: _973  and  _974
REMARK  454  A    between atoms: _980  and  _981
REMARK  455  A    between atoms: _981  and  _982
REMARK  456  A    between atoms: _981  and  _984
REMARK  457  A    between atoms: _984  and  _985
REMARK  458  A    between atoms: _992  and  _993
REMARK  459  A    between atoms: _993  and  _994
REMARK  460  A    between atoms: _993  and  _996
REMARK  461  A    between atoms: _998  and  _999
REMARK  462  A    between atoms: _999  and  _1000
REMARK  463  A    between atoms: _1003  and  _1004
REMARK  464  A    between atoms: _1004  and  _1005
REMARK  465  A    between atoms: _1004  and  _1007
REMARK  466  A    between atoms: _1007  and  _1008
REMARK  467  A    between atoms: _1015  and  _1016
REMARK  468  A    between atoms: _1016  and  _1017
REMARK  469  A    between atoms: _1016  and  _1019
REMARK  470  A    between atoms: _1019  and  _1020
REMARK  471  A    between atoms: _1023  and  _1024
REMARK  472  A    between atoms: _1024  and  _1025
REMARK  473  A    between atoms: _1024  and  _1027
REMARK  474  A    between atoms: _1030  and  _1031
REMARK  475  A    between atoms: _1031  and  _1032
REMARK  476  A    between atoms: _1035  and  _1036
REMARK  477  A    between atoms: _1036  and  _1037
REMARK  478  A    between atoms: _1036  and  _1039
REMARK  479  A    between atoms: _1039  and  _1040
REMARK  480  A    between atoms: _1040  and  _1041
REMARK  481  A    between atoms: _1044  and  _1045
REMARK  482  A    between atoms: _1045  and  _1046
REMARK  483  A    between atoms: _1045  and  _1048
REMARK  484  A    between atoms: _1048  and  _1049
REMARK  485  A    between atoms: _1049  and  _1050
REMARK  486  A    between atoms: _1050  and  _1051
REMARK  487  A    between atoms: _1053  and  _1054
REMARK  488  A    between atoms: _1054  and  _1055
REMARK  489  A    between atoms: _1054  and  _1057
REMARK  490  A    between atoms: _1060  and  _1061
REMARK  491  A    between atoms: _1061  and  _1062
REMARK  492  A    between atoms: _1061  and  _1064
REMARK  493  A    between atoms: _1067  and  _1068
REMARK  494  A    between atoms: _1068  and  _1069
REMARK  495  A    between atoms: _1068  and  _1071
REMARK  496  A    between atoms: _1074  and  _1075
REMARK  497  A    between atoms: _1075  and  _1076
REMARK  498  A    between atoms: _1075  and  _1078
REMARK  499  A    between atoms: _1078  and  _1079
REMARK  500  A    between atoms: _1082  and  _1083
REMARK  501  A    between atoms: _1083  and  _1084
REMARK  502  A    between atoms: _1083  and  _1086
REMARK  503  A    between atoms: _1089  and  _1090
REMARK  504  A    between atoms: _1090  and  _1091
REMARK  505  A    between atoms: _1090  and  _1093
REMARK  506  A    between atoms: _1093  and  _1094
REMARK  507  A    between atoms: _1094  and  _1095
REMARK  508  A    between atoms: _1095  and  _1096
REMARK  509  A    between atoms: _1098  and  _1099
REMARK  510  A    between atoms: _1099  and  _1100
REMARK  511  A    between atoms: _1099  and  _1102
REMARK  512  A    between atoms: _1102  and  _1103
REMARK  513  A    between atoms: _1108  and  _1109
REMARK  514  A    between atoms: _1109  and  _1110
REMARK  515  A    between atoms: _1109  and  _1112
REMARK  516  A    between atoms: _1112  and  _1113
REMARK  517  A    between atoms: _1116  and  _1117
REMARK  518  A    between atoms: _1117  and  _1118
REMARK  519  A    between atoms: _1117  and  _1120
REMARK  520  A    between atoms: _1120  and  _1121
REMARK  521  A    between atoms: _1124  and  _1125
REMARK  522  A    between atoms: _1125  and  _1126
REMARK  523  A    between atoms: _1125  and  _1128
REMARK  524  A    between atoms: _1128  and  _1129
REMARK  525  A    between atoms: _1132  and  _1133
REMARK  526  A    between atoms: _1133  and  _1134
REMARK  527  A    between atoms: _1133  and  _1136
REMARK  528  A    between atoms: _1136  and  _1137
REMARK  529  A    between atoms: _1137  and  _1138
REMARK  530  A    between atoms: _1141  and  _1142
REMARK  531  A    between atoms: _1142  and  _1143
REMARK  532  A    between atoms: _1142  and  _1145
REMARK  533  A    between atoms: _1145  and  _1146
REMARK  534  A    between atoms: _1146  and  _1147
REMARK  535  A    between atoms: _1150  and  _1151
REMARK  536  A    between atoms: _1151  and  _1152
REMARK  537  A    between atoms: _1151  and  _1154
REMARK  538  A    between atoms: _1154  and  _1155
REMARK  539  A    between atoms: _1162  and  _1163
REMARK  540  A    between atoms: _1163  and  _1164
REMARK  541  A    between atoms: _1167  and  _1168
REMARK  542  A    between atoms: _1168  and  _1169
REMARK  543  A    between atoms: _1168  and  _1171
REMARK  544  A    between atoms: _1171  and  _1172
REMARK  545  A    between atoms: _1181  and  _1182
REMARK  546  A    between atoms: _1182  and  _1183
REMARK  547  A    between atoms: _1182  and  _1185
REMARK  548  A    between atoms: _1185  and  _1186
REMARK  549  A    between atoms: _1186  and  _1187
REMARK  550  A    between atoms: _1190  and  _1191
REMARK  551  A    between atoms: _1191  and  _1192
REMARK  552  A    between atoms: _1191  and  _1194
REMARK  553  A    between atoms: _1196  and  _1197
REMARK  554  A    between atoms: _1197  and  _1198
REMARK  555  A    between atoms: _1197  and  _1200
REMARK  556  A    between atoms: _1202  and  _1203
REMARK  557  A    between atoms: _1203  and  _1204
REMARK  558  A    between atoms: _1207  and  _1208
REMARK  559  A    between atoms: _1208  and  _1209
REMARK  560  A    between atoms: _1211  and  _1212
REMARK  561  A    between atoms: _1212  and  _1213
REMARK  562  A    between atoms: _1215  and  _1216
REMARK  563  A    between atoms: _1216  and  _1217
REMARK  564  A    between atoms: _1216  and  _1219
REMARK  565  A    between atoms: _1221  and  _1222
REMARK  566  A    between atoms: _1222  and  _1223
REMARK  567  A    between atoms: _1222  and  _1225
REMARK  568  A    between atoms: _1225  and  _1226
REMARK  569  A    between atoms: _1232  and  _1233
REMARK  570  A    between atoms: _1233  and  _1234
REMARK  571  A    between atoms: _1233  and  _1236
REMARK  572  A    between atoms: _1239  and  _1240
REMARK  573  A    between atoms: _1240  and  _1241
REMARK  574  A    between atoms: _1240  and  _1243
REMARK  575  A    between atoms: _1247  and  _1249
REMARK  576  A    between atoms: _1247  and  _1252
REMARK  577  A    between atoms: _1251  and  _1252
REMARK  578  A    between atoms: _1251  and  _1254
REMARK  579  A    between atoms: _1253  and  _1254
REMARK  580  A    between atoms: _1253  and  _1256
REMARK  581  A    between atoms: _1254  and  _1255
REMARK  582  A    between atoms: _1255  and  _1257
REMARK  583  A    between atoms: _1256  and  _1258
REMARK  584  A    between atoms: _1265  and  _1266
REMARK  585  A    between atoms: _1266  and  _1267
REMARK  586  A    between atoms: _1266  and  _1269
REMARK  587  A    between atoms: _1272  and  _1273
REMARK  588  A    between atoms: _1273  and  _1274
REMARK  589  A    between atoms: _1273  and  _1276
REMARK  590  A    between atoms: _1276  and  _1277
REMARK  591  A    between atoms: _1280  and  _1281
REMARK  592  A    between atoms: _1281  and  _1282
REMARK  593  A    between atoms: _1281  and  _1284
REMARK  594  A    between atoms: _1287  and  _1288
REMARK  595  A    between atoms: _1288  and  _1289
REMARK  596  A    between atoms: _1291  and  _1292
REMARK  597  A    between atoms: _1292  and  _1293
REMARK  598  A    between atoms: _1292  and  _1295
REMARK  599  A    between atoms: _1295  and  _1296
REMARK  600  A    between atoms: _1296  and  _1297
REMARK  601  A    between atoms: _1301  and  _1302
REMARK  602  A    between atoms: _1307  and  _1308
REMARK  603  A    between atoms: _1308  and  _1309
REMARK  604  A    between atoms: _1308  and  _1311
REMARK  605  A    between atoms: _1311  and  _1312
REMARK  606  A    between atoms: _1312  and  _1313
REMARK  607  A    between atoms: _1315  and  _1316
REMARK  608  A    between atoms: _1316  and  _1317
REMARK  609  A    between atoms: _1319  and  _1320
REMARK  610  A    between atoms: _1320  and  _1321
REMARK  611  A    between atoms: _1320  and  _1323
REMARK  612  A    between atoms: _1323  and  _1324
REMARK  613  A    between atoms: _1324  and  _1325
REMARK  614  A    between atoms: _1325  and  _1326
REMARK  615  A    between atoms: _1330  and  _1331
REMARK  616  A    between atoms: _1331  and  _1332
REMARK  617  A    between atoms: _1334  and  _1335
REMARK  618  A    between atoms: _1335  and  _1336
REMARK  619  A    between atoms: _1335  and  _1338
REMARK  620  A    between atoms: _1341  and  _1342
REMARK  621  A    between atoms: _1342  and  _1343
REMARK  622  A    between atoms: _1342  and  _1345
REMARK  623  A    between atoms: _1345  and  _1346
REMARK  624  A    between atoms: _1346  and  _1347
REMARK  625  A    between atoms: _1347  and  _1348
REMARK  626  A    between atoms: _1350  and  _1351
REMARK  627  A    between atoms: _1351  and  _1352
REMARK  628  A    between atoms: _1351  and  _1354
REMARK  629  A    between atoms: _1357  and  _1358
REMARK  630  A    between atoms: _1358  and  _1359
REMARK  631  A    between atoms: _1358  and  _1361
REMARK  632  A    between atoms: _1361  and  _1362
REMARK  633  A    between atoms: _1365  and  _1366
REMARK  634  A    between atoms: _1366  and  _1367
REMARK  635  A    between atoms: _1366  and  _1369
REMARK  636  A    between atoms: _1369  and  _1370
REMARK  637  A    between atoms: _1373  and  _1374
REMARK  638  A    between atoms: _1374  and  _1375
REMARK  639  A    between atoms: _1374  and  _1377
REMARK  640  A    between atoms: _1377  and  _1378
REMARK  641  A    between atoms: _1383  and  _1384
REMARK  642  A    between atoms: _1384  and  _1385
REMARK  643  A    between atoms: _1384  and  _1387
REMARK  644  A    between atoms: _1387  and  _1388
REMARK  645  A    between atoms: _1391  and  _1392
REMARK  646  A    between atoms: _1392  and  _1393
REMARK  647  A    between atoms: _1392  and  _1395
REMARK  648  A    between atoms: _1395  and  _1396
REMARK  649  A    between atoms: _1396  and  _1397
REMARK  650  A    between atoms: _1397  and  _1398
REMARK  651  A    between atoms: _1400  and  _1401
REMARK  652  A    between atoms: _1401  and  _1402
REMARK  653  A    between atoms: _1401  and  _1404
REMARK  654  A    between atoms: _1404  and  _1405
REMARK  655  A    between atoms: _1405  and  _1406
REMARK  656  A    between atoms: _1409  and  _1410
REMARK  657  A    between atoms: _1410  and  _1411
REMARK  658  A    between atoms: _1410  and  _1413
REMARK  659  A    between atoms: _1413  and  _1414
REMARK  660  A    between atoms: _1417  and  _1418
REMARK  661  A    between atoms: _1418  and  _1419
REMARK  662  A    between atoms: _1418  and  _1421
REMARK  663  A    between atoms: _1421  and  _1422
REMARK  664  A    between atoms: _1422  and  _1423
REMARK  665  A    between atoms: _1426  and  _1427
REMARK  666  A    between atoms: _1427  and  _1428
REMARK  667  A    between atoms: _1427  and  _1430
REMARK  668  A    between atoms: _1433  and  _1434
REMARK  669  A    between atoms: _1434  and  _1435
REMARK  670  A    between atoms: _1434  and  _1437
REMARK  671  A    between atoms: _1437  and  _1438
REMARK  672  A    between atoms: _1438  and  _1439
REMARK  673  A    between atoms: _1442  and  _1443
REMARK  674  A    between atoms: _1443  and  _1444
REMARK  675  A    between atoms: _1443  and  _1446
REMARK  676  A    between atoms: _1446  and  _1447
REMARK  677  A    between atoms: _1454  and  _1455
REMARK  678  A    between atoms: _1455  and  _1456
REMARK  679  A    between atoms: _1455  and  _1458
REMARK  680  A    between atoms: _1458  and  _1459
REMARK  681  A    between atoms: _1462  and  _1463
REMARK  682  A    between atoms: _1463  and  _1464
REMARK  683  A    between atoms: _1463  and  _1466
REMARK  684  A    between atoms: _1466  and  _1467
REMARK  685  A    between atoms: _1467  and  _1468
REMARK  686  A    between atoms: _1471  and  _1472
REMARK  687  A    between atoms: _1472  and  _1473
REMARK  688  A    between atoms: _1472  and  _1475
REMARK  689  A    between atoms: _1475  and  _1476
REMARK  690  A    between atoms: _1476  and  _1477
REMARK  691  A    between atoms: _1480  and  _1481
REMARK  692  A    between atoms: _1481  and  _1482
REMARK  693  A    between atoms: _1481  and  _1484
REMARK  694  A    between atoms: _1484  and  _1485
REMARK  695  A    between atoms: _1485  and  _1486
REMARK  696  A    between atoms: _1486  and  _1487
REMARK  697  A    between atoms: _1491  and  _1492
REMARK  698  A    between atoms: _1492  and  _1493
REMARK  699  A    between atoms: _1492  and  _1495
REMARK  700  A    between atoms: _1495  and  _1496
REMARK  701  A    between atoms: _1496  and  _1497
REMARK  702  A    between atoms: _1497  and  _1498
REMARK  703  A    between atoms: _1502  and  _1503
REMARK  704  A    between atoms: _1503  and  _1504
REMARK  705  A    between atoms: _1503  and  _1506
REMARK  706  A    between atoms: _1506  and  _1507
REMARK  707  A    between atoms: _1510  and  _1511
REMARK  708  A    between atoms: _1511  and  _1512
REMARK  709  A    between atoms: _1511  and  _1514
REMARK  710  A    between atoms: _1514  and  _1515
REMARK  711  A    between atoms: _1515  and  _1516
REMARK  712  A    between atoms: _1516  and  _1517
REMARK  713  A    between atoms: _1519  and  _1520
REMARK  714  A    between atoms: _1520  and  _1521
REMARK  715  A    between atoms: _1520  and  _1523
REMARK  716  A    between atoms: _1523  and  _1524
REMARK  717  A    between atoms: _1524  and  _1525
REMARK  718  A    between atoms: _1528  and  _1529
REMARK  719  A    between atoms: _1529  and  _1530
REMARK  720  A    between atoms: _1529  and  _1532
REMARK  721  A    between atoms: _1532  and  _1533
REMARK  722  A    between atoms: _1536  and  _1537
REMARK  723  A    between atoms: _1537  and  _1538
REMARK  724  A    between atoms: _1537  and  _1540
REMARK  725  A    between atoms: _1543  and  _1544
REMARK  726  A    between atoms: _1544  and  _1545
REMARK  727  A    between atoms: _1544  and  _1547
REMARK  728  A    between atoms: _1547  and  _1548
REMARK  729  A    between atoms: _1548  and  _1549
REMARK  730  A    between atoms: _1549  and  _1550
REMARK  731  A    between atoms: _1552  and  _1553
REMARK  732  A    between atoms: _1553  and  _1554
REMARK  733  A    between atoms: _1553  and  _1556
REMARK  734  A    between atoms: _1556  and  _1557
REMARK  735  A    between atoms: _1557  and  _1558
REMARK  736  A    between atoms: _1558  and  _1559
REMARK  737  A    between atoms: _1561  and  _1562
REMARK  738  A    between atoms: _1562  and  _1563
REMARK  739  A    between atoms: _1562  and  _1565
REMARK  740  A    between atoms: _1565  and  _1566
REMARK  741  A    between atoms: _1571  and  _1572
REMARK  742  A    between atoms: _1572  and  _1573
REMARK  743  A    between atoms: _1572  and  _1575
REMARK  744  A    between atoms: _1577  and  _1578
REMARK  745  A    between atoms: _1578  and  _1579
REMARK  746  A    between atoms: _1578  and  _1581
REMARK  747  A    between atoms: _1581  and  _1582
REMARK  748  A    between atoms: _1582  and  _1583
REMARK  749  A    between atoms: _1586  and  _1587
REMARK  750  A    between atoms: _1587  and  _1588
REMARK  751  A    between atoms: _1587  and  _1590
REMARK  752  A    between atoms: _1590  and  _1591
REMARK  753  A    between atoms: _1597  and  _1598
REMARK  754  A    between atoms: _1598  and  _1599
REMARK  755  A    between atoms: _1598  and  _1601
REMARK  756  A    between atoms: _1601  and  _1602
REMARK  757  A    between atoms: _1605  and  _1606
REMARK  758  A    between atoms: _1606  and  _1607
REMARK  759  A    between atoms: _1609  and  _1610
REMARK  760  A    between atoms: _1610  and  _1611
REMARK  761  A    between atoms: _1610  and  _1613
REMARK  762  A    between atoms: _1613  and  _1614
REMARK  763  A    between atoms: _1622  and  _1623
REMARK  764  A    between atoms: _1628  and  _1629
REMARK  765  A    between atoms: _1629  and  _1630
REMARK  766  A    between atoms: _1629  and  _1632
REMARK  767  A    between atoms: _1632  and  _1633
REMARK  768  A    between atoms: _1636  and  _1637
REMARK  769  A    between atoms: _1637  and  _1638
REMARK  770  A    between atoms: _1637  and  _1640
REMARK  771  A    between atoms: _1643  and  _1644
REMARK  772  A    between atoms: _1644  and  _1645
REMARK  773  A    between atoms: _1644  and  _1647
REMARK  774  A    between atoms: _1647  and  _1648
REMARK  775  A    between atoms: _1651  and  _1652
REMARK  776  A    between atoms: _1652  and  _1653
REMARK  777  A    between atoms: _1652  and  _1655
REMARK  778  A    between atoms: _1655  and  _1656
REMARK  779  A    between atoms: _1662  and  _1663
REMARK  780  A    between atoms: _1663  and  _1664
REMARK  781  A    between atoms: _1663  and  _1666
REMARK  782  A    between atoms: _1669  and  _1670
REMARK  783  A    between atoms: _1670  and  _1671
REMARK  784  A    between atoms: _1670  and  _1673
REMARK  785  A    between atoms: _1673  and  _1674
REMARK  786  A    between atoms: _1674  and  _1675
REMARK                            x       y       z     vdW  Elec       q    Type
REMARK                         _______ _______ _______ _____ _____    ______ ____
ROOT
ATOM      1  C   UNL     1       4.688  11.791  26.691  0.00  0.00    +0.000 C 
ATOM      2  C   UNL     1       4.130  12.650  25.777  0.00  0.00    +0.000 C 
ATOM      3  C   UNL     1       4.295  12.487  25.338  0.00  0.00    +0.000 C 
ENDROOT
TORSDOF 0
REMARK  Name = /Users/mlugowska/PhD/ML_residence_time_prediction/protein_files/5J64_protein.pdb
REMARK  786 active torsions:
REMARK  status: ('A' for Active; 'I' for Inactive)
REMARK    1  A    between atoms: _2  and  _3
REMARK    2  A    between atoms: _2  and  _5
REMARK    3  A    between atoms: _5  and  _6
REMARK    4  A    between atoms: _6  and  _7
REMARK    5  A    between atoms: _10  and  _11
REMARK    6  A    between atoms: _11  and  _12
REMARK    7  A    between atoms: _11  and  _14
REMARK    8  A    between atoms: _17  and  _18
REMARK    9  A    between atoms: _18  and  _19
REMARK   10  A    between atoms: _18  and  _21
REMARK   11  A    between atoms: _21  and  _22
REMARK   12  A    between atoms: _22  and  _23
REMARK   13  A    between atoms: _26  and  _27
REMARK   14  A    between atoms: _27  and  _28
REMARK   15  A    between atoms: _27  and  _30
REMARK   16  A    between atoms: _33  and  _34
REMARK   17  A    between atoms: _34  and  _35
REMARK   18  A    between atoms: _34  and  _37
REMARK   19  A    between atoms: _37  and  _38
REMARK   20  A    between atoms: _44  and  _45
REMARK   21  A    between atoms: _45  and  _46
REMARK   22  A    between atoms: _49  and  _50
REMARK   23  A    between atoms: _50  and  _51
REMARK   24  A    between atoms: _50  and  _53
REMARK   25  A    between atoms: _53  and  _54
REMARK   26  A    between atoms: _60  and  _61
REMARK   27  A    between atoms: _61  and  _62
REMARK   28  A    between atoms: _61  and  _64
REMARK   29  A    between atoms: _64  and  _65
REMARK   30  A    between atoms: _65  and  _66
REMARK   31  A    between atoms: _69  and  _70
REMARK   32  A    between atoms: _70  and  _71
REMARK   33  A    between atoms: _74  and  _75
REMARK   34  A    between atoms: _75  and  _76
REMARK   35  A    between atoms: _75  and  _78
REMARK   36  A    between atoms: _78  and  _79
REMARK   37  A    between atoms: _79  and  _80
REMARK   38  A    between atoms: _83  and  _84
REMARK   39  A    between atoms: _84  and  _85
REMARK   40  A    between atoms: _84  and  _87
REMARK   41  A    between atoms: _87  and  _88
REMARK   42  A    between atoms: _91  and  _92
REMARK   43  A    between atoms: _92  and  _93
REMARK   44  A    between atoms: _96  and  _97
REMARK   45  A    between atoms: _97  and  _98
REMARK   46  A    between atoms: _97  and  _100
REMARK   47  A    between atoms: _100  and  _101
REMARK   48  A    between atoms: _101  and  _102
REMARK   49  A    between atoms: _105  and  _106
REMARK   50  A    between atoms: _106  and  _107
REMARK   51  A    between atoms: _106  and  _109
REMARK   52  A    between atoms: _109  and  _110
REMARK   53  A    between atoms: _113  and  _114
REMARK   54  A    between atoms: _114  and  _115
REMARK   55  A    between atoms: _114  and  _117
REMARK   56  A    between atoms: _117  and  _118
REMARK   57  A    between atoms: _118  and  _119
REMARK   58  A    between atoms: _121  and  _122
REMARK   59  A    between atoms: _122  and  _123
REMARK   60  A    between atoms: _122  and  _125
REMARK   61  A    between atoms: _127  and  _128
REMARK   62  A    between atoms: _128  and  _129
REMARK   63  A    between atoms: _128  and  _131
REMARK   64  A    between atoms: _131  and  _132
REMARK   65  A    between atoms: _135  and  _136
REMARK   66  A    between atoms: _136  and  _137
REMARK   67  A    between atoms: _136  and  _139
REMARK   68  A    between atoms: _139  and  _140
REMARK   69  A    between atoms: _143  and  _144
REMARK   70  A    between atoms: _144  and  _145
REMARK   71  A    between atoms: _144  and  _147
REMARK   72  A    between atoms: _147  and  _148
REMARK   73  A    between atoms: _151  and  _152
REMARK   74  A    between atoms: _152  and  _153
REMARK   75  A    between atoms: _152  and  _155
REMARK   76  A    between atoms: _155  and  _156
REMARK   77  A    between atoms: _159  and  _160
REMARK   78  A    between atoms: _160  and  _161
REMARK   79  A    between atoms: _160  and  _163
REMARK   80  A    between atoms: _166  and  _167
REMARK   81  A    between atoms: _167  and  _170
REMARK   82  A    between atoms: _170  and  _171
REMARK   83  A    between atoms: _181  and  _183
REMARK   84  A    between atoms: _183  and  _184
REMARK   85  A    between atoms: _189  and  _194
REMARK   86  A    between atoms: _192  and  _195
REMARK   87  A    between atoms: _193  and  _194
REMARK   88  A    between atoms: _195  and  _196
REMARK   89  A    between atoms: _201  and  _202
REMARK   90  A    between atoms: _202  and  _203
REMARK   91  A    between atoms: _202  and  _205
REMARK   92  A    between atoms: _207  and  _208
REMARK   93  A    between atoms: _208  and  _209
REMARK   94  A    between atoms: _208  and  _211
REMARK   95  A    between atoms: _211  and  _212
REMARK   96  A    between atoms: _215  and  _216
REMARK   97  A    between atoms: _216  and  _217
REMARK   98  A    between atoms: _216  and  _219
REMARK   99  A    between atoms: _219  and  _220
REMARK  100  A    between atoms: _220  and  _221
REMARK  101  A    between atoms: _221  and  _222
REMARK  102  A    between atoms: _224  and  _225
REMARK  103  A    between atoms: _225  and  _226
REMARK  104  A    between atoms: _225  and  _228
REMARK  105  A    between atoms: _228  and  _229
REMARK  106  A    between atoms: _229  and  _230
REMARK  107  A    between atoms: _233  and  _234
REMARK  108  A    between atoms: _234  and  _235
REMARK  109  A    between atoms: _234  and  _237
REMARK  110  A    between atoms: _237  and  _238
REMARK  111  A    between atoms: _241  and  _242
REMARK  112  A    between atoms: _242  and  _243
REMARK  113  A    between atoms: _242  and  _245
REMARK  114  A    between atoms: _245  and  _246
REMARK  115  A    between atoms: _252  and  _253
REMARK  116  A    between atoms: _253  and  _254
REMARK  117  A    between atoms: _253  and  _256
REMARK  118  A    between atoms: _256  and  _257
REMARK  119  A    between atoms: _260  and  _261
REMARK  120  A    between atoms: _261  and  _262
REMARK  121  A    between atoms: _261  and  _264
REMARK  122  A    between atoms: _264  and  _265
REMARK  123  A    between atoms: _265  and  _266
REMARK  124  A    between atoms: _266  and  _267
REMARK  125  A    between atoms: _271  and  _272
REMARK  126  A    between atoms: _272  and  _273
REMARK  127  A    between atoms: _272  and  _275
REMARK  128  A    between atoms: _275  and  _276
REMARK  129  A    between atoms: _276  and  _277
REMARK  130  A    between atoms: _280  and  _281
REMARK  131  A    between atoms: _281  and  _282
REMARK  132  A    between atoms: _281  and  _284
REMARK  133  A    between atoms: _284  and  _285
REMARK  134  A    between atoms: _288  and  _289
REMARK  135  A    between atoms: _289  and  _292
REMARK  136  A    between atoms: _292  and  _293
REMARK  137  A    between atoms: _309  and  _310
REMARK  138  A    between atoms: _309  and  _312
REMARK  139  A    between atoms: _312  and  _313
REMARK  140  A    between atoms: _316  and  _317
REMARK  141  A    between atoms: _317  and  _318
REMARK  142  A    between atoms: _317  and  _320
REMARK  143  A    between atoms: _322  and  _323
REMARK  144  A    between atoms: _323  and  _324
REMARK  145  A    between atoms: _323  and  _326
REMARK  146  A    between atoms: _328  and  _329
REMARK  147  A    between atoms: _329  and  _330
REMARK  148  A    between atoms: _329  and  _332
REMARK  149  A    between atoms: _332  and  _333
REMARK  150  A    between atoms: _336  and  _337
REMARK  151  A    between atoms: _337  and  _338
REMARK  152  A    between atoms: _341  and  _342
REMARK  153  A    between atoms: _342  and  _343
REMARK  154  A    between atoms: _342  and  _345
REMARK  155  A    between atoms: _345  and  _346
REMARK  156  A    between atoms: _349  and  _350
REMARK  157  A    between atoms: _350  and  _351
REMARK  158  A    between atoms: _350  and  _353
REMARK  159  A    between atoms: _353  and  _354
REMARK  160  A    between atoms: _357  and  _358
REMARK  161  A    between atoms: _358  and  _359
REMARK  162  A    between atoms: _358  and  _361
REMARK  163  A    between atoms: _361  and  _362
REMARK  164  A    between atoms: _362  and  _363
REMARK  165  A    between atoms: _363  and  _364
REMARK  166  A    between atoms: _366  and  _367
REMARK  167  A    between atoms: _367  and  _368
REMARK  168  A    between atoms: _367  and  _370
REMARK  169  A    between atoms: _370  and  _371
REMARK  170  A    between atoms: _374  and  _375
REMARK  171  A    between atoms: _375  and  _376
REMARK  172  A    between atoms: _375  and  _378
REMARK  173  A    between atoms: _378  and  _379
REMARK  174  A    between atoms: _379  and  _380
REMARK  175  A    between atoms: _380  and  _381
REMARK  176  A    between atoms: _385  and  _386
REMARK  177  A    between atoms: _386  and  _387
REMARK  178  A    between atoms: _386  and  _389
REMARK  179  A    between atoms: _389  and  _390
REMARK  180  A    between atoms: _397  and  _398
REMARK  181  A    between atoms: _398  and  _399
REMARK  182  A    between atoms: _398  and  _401
REMARK  183  A    between atoms: _401  and  _402
REMARK  184  A    between atoms: _402  and  _403
REMARK  185  A    between atoms: _406  and  _407
REMARK  186  A    between atoms: _407  and  _408
REMARK  187  A    between atoms: _407  and  _410
REMARK  188  A    between atoms: _412  and  _413
REMARK  189  A    between atoms: _413  and  _414
REMARK  190  A    between atoms: _413  and  _416
REMARK  191  A    between atoms: _416  and  _417
REMARK  192  A    between atoms: _420  and  _421
REMARK  193  A    between atoms: _421  and  _422
REMARK  194  A    between atoms: _421  and  _424
REMARK  195  A    between atoms: _427  and  _428
REMARK  196  A    between atoms: _428  and  _429
REMARK  197  A    between atoms: _428  and  _431
REMARK  198  A    between atoms: _431  and  _432
REMARK  199  A    between atoms: _436  and  _437
REMARK  200  A    between atoms: _442  and  _443
REMARK  201  A    between atoms: _443  and  _444
REMARK  202  A    between atoms: _443  and  _446
REMARK  203  A    between atoms: _448  and  _449
REMARK  204  A    between atoms: _449  and  _450
REMARK  205  A    between atoms: _449  and  _452
REMARK  206  A    between atoms: _452  and  _453
REMARK  207  A    between atoms: _453  and  _454
REMARK  208  A    between atoms: _454  and  _455
REMARK  209  A    between atoms: _457  and  _458
REMARK  210  A    between atoms: _458  and  _459
REMARK  211  A    between atoms: _458  and  _461
REMARK  212  A    between atoms: _461  and  _462
REMARK  213  A    between atoms: _465  and  _466
REMARK  214  A    between atoms: _466  and  _467
REMARK  215  A    between atoms: _466  and  _469
REMARK  216  A    between atoms: _469  and  _470
REMARK  217  A    between atoms: _473  and  _474
REMARK  218  A    between atoms: _474  and  _475
REMARK  219  A    between atoms: _474  and  _477
REMARK  220  A    between atoms: _479  and  _480
REMARK  221  A    between atoms: _480  and  _481
REMARK  222  A    between atoms: _483  and  _484
REMARK  223  A    between atoms: _484  and  _485
REMARK  224  A    between atoms: _484  and  _487
REMARK  225  A    between atoms: _487  and  _488
REMARK  226  A    between atoms: _488  and  _489
REMARK  227  A    between atoms: _489  and  _490
REMARK  228  A    between atoms: _492  and  _493
REMARK  229  A    between atoms: _493  and  _494
REMARK  230  A    between atoms: _493  and  _496
REMARK  231  A    between atoms: _496  and  _497
REMARK  232  A    between atoms: _497  and  _498
REMARK  233  A    between atoms: _501  and  _502
REMARK  234  A    between atoms: _502  and  _503
REMARK  235  A    between atoms: _502  and  _505
REMARK  236  A    between atoms: _505  and  _506
REMARK  237  A    between atoms: _509  and  _510
REMARK  238  A    between atoms: _510  and  _511
REMARK  239  A    between atoms: _510  and  _513
REMARK  240  A    between atoms: _513  and  _514
REMARK  241  A    between atoms: _519  and  _520
REMARK  242  A    between atoms: _520  and  _521
REMARK  243  A    between atoms: _520  and  _523
REMARK  244  A    between atoms: _523  and  _524
REMARK  245  A    between atoms: _527  and  _528
REMARK  246  A    between atoms: _528  and  _529
REMARK  247  A    between atoms: _528  and  _531
REMARK  248  A    between atoms: _531  and  _532
REMARK  249  A    between atoms: _535  and  _536
REMARK  250  A    between atoms: _536  and  _537
REMARK  251  A    between atoms: _536  and  _539
REMARK  252  A    between atoms: _539  and  _540
REMARK  253  A    between atoms: _543  and  _544
REMARK  254  A    between atoms: _544  and  _545
REMARK  255  A    between atoms: _544  and  _547
REMARK  256  A    between atoms: _547  and  _548
REMARK  257  A    between atoms: _552  and  _553
REMARK  258  A    between atoms: _558  and  _559
REMARK  259  A    between atoms: _559  and  _560
REMARK  260  A    between atoms: _559  and  _562
REMARK  261  A    between atoms: _562  and  _563
REMARK  262  A    between atoms: _566  and  _567
REMARK  263  A    between atoms: _567  and  _568
REMARK  264  A    between atoms: _567  and  _570
REMARK  265  A    between atoms: _570  and  _571
REMARK  266  A    between atoms: _571  and  _572
REMARK  267  A    between atoms: _572  and  _573
REMARK  268  A    between atoms: _575  and  _576
REMARK  269  A    between atoms: _576  and  _577
REMARK  270  A    between atoms: _576  and  _579
REMARK  271  A    between atoms: _579  and  _580
REMARK  272  A    between atoms: _580  and  _581
REMARK  273  A    between atoms: _584  and  _585
REMARK  274  A    between atoms: _585  and  _586
REMARK  275  A    between atoms: _585  and  _588
REMARK  276  A    between atoms: _588  and  _589
REMARK  277  A    between atoms: _592  and  _593
REMARK  278  A    between atoms: _593  and  _594
REMARK  279  A    between atoms: _593  and  _596
REMARK  280  A    between atoms: _596  and  _597
REMARK  281  A    between atoms: _597  and  _598
REMARK  282  A    between atoms: _598  and  _599
REMARK  283  A    between atoms: _603  and  _604
REMARK  284  A    between atoms: _604  and  _605
REMARK  285  A    between atoms: _604  and  _607
REMARK  286  A    between atoms: _610  and  _611
REMARK  287  A    between atoms: _611  and  _612
REMARK  288  A    between atoms: _611  and  _614
REMARK  289  A    between atoms: _614  and  _615
REMARK  290  A    between atoms: _618  and  _619
REMARK  291  A    between atoms: _619  and  _620
REMARK  292  A    between atoms: _619  and  _622
REMARK  293  A    between atoms: _625  and  _626
REMARK  294  A    between atoms: _626  and  _627
REMARK  295  A    between atoms: _626  and  _629
REMARK  296  A    between atoms: _629  and  _630
REMARK  297  A    between atoms: _633  and  _634
REMARK  298  A    between atoms: _634  and  _635
REMARK  299  A    between atoms: _634  and  _637
REMARK  300  A    between atoms: _640  and  _641
REMARK  301  A    between atoms: _641  and  _642
REMARK  302  A    between atoms: _641  and  _644
REMARK  303  A    between atoms: _644  and  _645
REMARK  304  A    between atoms: _648  and  _649
REMARK  305  A    between atoms: _649  and  _650
REMARK  306  A    between atoms: _649  and  _652
REMARK  307  A    between atoms: _655  and  _656
REMARK  308  A    between atoms: _656  and  _657
REMARK  309  A    between atoms: _659  and  _660
REMARK  310  A    between atoms: _660  and  _661
REMARK  311  A    between atoms: _660  and  _663
REMARK  312  A    between atoms: _663  and  _664
REMARK  313  A    between atoms: _667  and  _668
REMARK  314  A    between atoms: _668  and  _669
REMARK  315  A    between atoms: _671  and  _672
REMARK  316  A    between atoms: _672  and  _673
REMARK  317  A    between atoms: _672  and  _675
REMARK  318  A    between atoms: _675  and  _676
REMARK  319  A    between atoms: _676  and  _677
REMARK  320  A    between atoms: _679  and  _680
REMARK  321  A    between atoms: _680  and  _681
REMARK  322  A    between atoms: _680  and  _683
REMARK  323  A    between atoms: _686  and  _687
REMARK  324  A    between atoms: _687  and  _688
REMARK  325  A    between atoms: _687  and  _690
REMARK  326  A    between atoms: _690  and  _691
REMARK  327  A    between atoms: _691  and  _692
REMARK  328  A    between atoms: _692  and  _693
REMARK  329  A    between atoms: _695  and  _696
REMARK  330  A    between atoms: _696  and  _697
REMARK  331  A    between atoms: _700  and  _701
REMARK  332  A    between atoms: _701  and  _702
REMARK  333  A    between atoms: _701  and  _704
REMARK  334  A    between atoms: _704  and  _705
REMARK  335  A    between atoms: _708  and  _709
REMARK  336  A    between atoms: _709  and  _710
REMARK  337  A    between atoms: _709  and  _712
REMARK  338  A    between atoms: _712  and  _713
REMARK  339  A    between atoms: _716  and  _717
REMARK  340  A    between atoms: _717  and  _720
REMARK  341  A    between atoms: _720  and  _721
REMARK  342  A    between atoms: _733  and  _734
REMARK  343  A    between atoms: _733  and  _735
REMARK  344  A    between atoms: _741  and  _744
REMARK  345  A    between atoms: _744  and  _745
REMARK  346  A    between atoms: _758  and  _759
REMARK  347  A    between atoms: _758  and  _761
REMARK  348  A    between atoms: _759  and  _760
REMARK  349  A    between atoms: _765  and  _766
REMARK  350  A    between atoms: _768  and  _769
REMARK  351  A    between atoms: _769  and  _770
REMARK  352  A    between atoms: _769  and  _772
REMARK  353  A    between atoms: _775  and  _776
REMARK  354  A    between atoms: _776  and  _777
REMARK  355  A    between atoms: _776  and  _779
REMARK  356  A    between atoms: _779  and  _780
REMARK  357  A    between atoms: _783  and  _784
REMARK  358  A    between atoms: _784  and  _785
REMARK  359  A    between atoms: _788  and  _789
REMARK  360  A    between atoms: _789  and  _790
REMARK  361  A    between atoms: _789  and  _792
REMARK  362  A    between atoms: _792  and  _793
REMARK  363  A    between atoms: _793  and  _794
REMARK  364  A    between atoms: _794  and  _795
REMARK  365  A    between atoms: _797  and  _798
REMARK  366  A    between atoms: _798  and  _799
REMARK  367  A    between atoms: _798  and  _801
REMARK  368  A    between atoms: _803  and  _804
REMARK  369  A    between atoms: _804  and  _805
REMARK  370  A    between atoms: _807  and  _808
REMARK  371  A    between atoms: _808  and  _809
REMARK  372  A    between atoms: _808  and  _811
REMARK  373  A    between atoms: _814  and  _815
REMARK  374  A    between atoms: _815  and  _816
REMARK  375  A    between atoms: _815  and  _818
REMARK  376  A    between atoms: _818  and  _819
REMARK  377  A    between atoms: _819  and  _820
REMARK  378  A    between atoms: _820  and  _821
REMARK  379  A    between atoms: _823  and  _824
REMARK  380  A    between atoms: _824  and  _825
REMARK  381  A    between atoms: _828  and  _829
REMARK  382  A    between atoms: _829  and  _830
REMARK  383  A    between atoms: _829  and  _832
REMARK  384  A    between atoms: _832  and  _833
REMARK  385  A    between atoms: _839  and  _840
REMARK  386  A    between atoms: _840  and  _841
REMARK  387  A    between atoms: _840  and  _843
REMARK  388  A    between atoms: _843  and  _844
REMARK  389  A    between atoms: _844  and  _845
REMARK  390  A    between atoms: _847  and  _848
REMARK  391  A    between atoms: _848  and  _849
REMARK  392  A    between atoms: _848  and  _851
REMARK  393  A    between atoms: _851  and  _852
REMARK  394  A    between atoms: _852  and  _853
REMARK  395  A    between atoms: _856  and  _857
REMARK  396  A    between atoms: _857  and  _858
REMARK  397  A    between atoms: _861  and  _862
REMARK  398  A    between atoms: _862  and  _863
REMARK  399  A    between atoms: _862  and  _865
REMARK  400  A    between atoms: _865  and  _866
REMARK  401  A    between atoms: _869  and  _870
REMARK  402  A    between atoms: _870  and  _871
REMARK  403  A    between atoms: _870  and  _873
REMARK  404  A    between atoms: _873  and  _874
REMARK  405  A    between atoms: _874  and  _875
REMARK  406  A    between atoms: _878  and  _879
REMARK  407  A    between atoms: _879  and  _880
REMARK  408  A    between atoms: _883  and  _884
REMARK  409  A    between atoms: _884  and  _885
REMARK  410  A    between atoms: _887  and  _888
REMARK  411  A    between atoms: _888  and  _889
REMARK  412  A    between atoms: _892  and  _893
REMARK  413  A    between atoms: _893  and  _894
REMARK  414  A    between atoms: _893  and  _896
REMARK  415  A    between atoms: _896  and  _897
REMARK  416  A    between atoms: _900  and  _901
REMARK  417  A    between atoms: _901  and  _902
REMARK  418  A    between atoms: _901  and  _904
REMARK  419  A    between atoms: _904  and  _905
REMARK  420  A    between atoms: _908  and  _909
REMARK  421  A    between atoms: _909  and  _910
REMARK  422  A    between atoms: _909  and  _912
REMARK  423  A    between atoms: _914  and  _915
REMARK  424  A    between atoms: _915  and  _916
REMARK  425  A    between atoms: _915  and  _918
REMARK  426  A    between atoms: _918  and  _919
REMARK  427  A    between atoms: _919  and  _920
REMARK  428  A    between atoms: _922  and  _923
REMARK  429  A    between atoms: _923  and  _924
REMARK  430  A    between atoms: _923  and  _926
REMARK  431  A    between atoms: _926  and  _927
REMARK  432  A    between atoms: _930  and  _931
REMARK  433  A    between atoms: _931  and  _932
REMARK  434  A    between atoms: _934  and  _935
REMARK  435  A    between atoms: _935  and  _936
REMARK  436  A    between atoms: _935  and  _938
REMARK  437  A    between atoms: _938  and  _939
REMARK  438  A    between atoms: _939  and  _940
REMARK  439  A    between atoms: _943  and  _944
REMARK  440  A    between atoms: _944  and  _945
REMARK  441  A    between atoms: _944  and  _947
REMARK  442  A    between atoms: _947  and  _948
REMARK  443  A    between atoms: _954  and  _955
REMARK  444  A    between atoms: _955  and  _956
REMARK  445  A    between atoms: _958  and  _959
REMARK  446  A    between atoms: _959  and  _960
REMARK  447  A    between atoms: _959  and  _962
REMARK  448  A    between atoms: _965  and  _966
REMARK  449  A    between atoms: _966  and  _967
REMARK  450  A    between atoms: _969  and  _970
REMARK  451  A    between atoms: _970  and  _971
REMARK  452  A    between atoms: _970  and  _973
REMARK  453  A    between atoms: _973  and  _974
REMARK  454  A    between atoms: _980  and  _981
REMARK  455  A    between atoms: _981  and  _982
REMARK  456  A    between atoms: _981  and  _984
REMARK  457  A    between atoms: _984  and  _985
REMARK  458  A    between atoms: _992  and  _993
REMARK  459  A    between atoms: _993  and  _994
REMARK  460  A    between atoms: _993  and  _996
REMARK  461  A    between atoms: _998  and  _999
REMARK  462  A    between atoms: _999  and  _1000
REMARK  463  A    between atoms: _1003  and  _1004
REMARK  464  A    between atoms: _1004  and  _1005
REMARK  465  A    between atoms: _1004  and  _1007
REMARK  466  A    between atoms: _1007  and  _1008
REMARK  467  A    between atoms: _1015  and  _1016
REMARK  468  A    between atoms: _1016  and  _1017
REMARK  469  A    between atoms: _1016  and  _1019
REMARK  470  A    between atoms: _1019  and  _1020
REMARK  471  A    between atoms: _1023  and  _1024
REMARK  472  A    between atoms: _1024  and  _1025
REMARK  473  A    between atoms: _1024  and  _1027
REMARK  474  A    between atoms: _1030  and  _1031
REMARK  475  A    between atoms: _1031  and  _1032
REMARK  476  A    between atoms: _1035  and  _1036
REMARK  477  A    between atoms: _1036  and  _1037
REMARK  478  A    between atoms: _1036  and  _1039
REMARK  479  A    between atoms: _1039  and  _1040
REMARK  480  A    between atoms: _1040  and  _1041
REMARK  481  A    between atoms: _1044  and  _1045
REMARK  482  A    between atoms: _1045  and  _1046
REMARK  483  A    between atoms: _1045  and  _1048
REMARK  484  A    between atoms: _1048  and  _1049
REMARK  485  A    between atoms: _1049  and  _1050
REMARK  486  A    between atoms: _1050  and  _1051
REMARK  487  A    between atoms: _1053  and  _1054
REMARK  488  A    between atoms: _1054  and  _1055
REMARK  489  A    between atoms: _1054  and  _1057
REMARK  490  A    between atoms: _1060  and  _1061
REMARK  491  A    between atoms: _1061  and  _1062
REMARK  492  A    between atoms: _1061  and  _1064
REMARK  493  A    between atoms: _1067  and  _1068
REMARK  494  A    between atoms: _1068  and  _1069
REMARK  495  A    between atoms: _1068  and  _1071
REMARK  496  A    between atoms: _1074  and  _1075
REMARK  497  A    between atoms: _1075  and  _1076
REMARK  498  A    between atoms: _1075  and  _1078
REMARK  499  A    between atoms: _1078  and  _1079
REMARK  500  A    between atoms: _1082  and  _1083
REMARK  501  A    between atoms: _1083  and  _1084
REMARK  502  A    between atoms: _1083  and  _1086
REMARK  503  A    between atoms: _1089  and  _1090
REMARK  504  A    between atoms: _1090  and  _1091
REMARK  505  A    between atoms: _1090  and  _1093
REMARK  506  A    between atoms: _1093  and  _1094
REMARK  507  A    between atoms: _1094  and  _1095
REMARK  508  A    between atoms: _1095  and  _1096
REMARK  509  A    between atoms: _1098  and  _1099
REMARK  510  A    between atoms: _1099  and  _1100
REMARK  511  A    between atoms: _1099  and  _1102
REMARK  512  A    between atoms: _1102  and  _1103
REMARK  513  A    between atoms: _1108  and  _1109
REMARK  514  A    between atoms: _1109  and  _1110
REMARK  515  A    between atoms: _1109  and  _1112
REMARK  516  A    between atoms: _1112  and  _1113
REMARK  517  A    between atoms: _1116  and  _1117
REMARK  518  A    between atoms: _1117  and  _1118
REMARK  519  A    between atoms: _1117  and  _1120
REMARK  520  A    between atoms: _1120  and  _1121
REMARK  521  A    between atoms: _1124  and  _1125
REMARK  522  A    between atoms: _1125  and  _1126
REMARK  523  A    between atoms: _1125  and  _1128
REMARK  524  A    between atoms: _1128  and  _1129
REMARK  525  A    between atoms: _1132  and  _1133
REMARK  526  A    between atoms: _1133  and  _1134
REMARK  527  A    between atoms: _1133  and  _1136
REMARK  528  A    between atoms: _1136  and  _1137
REMARK  529  A    between atoms: _1137  and  _1138
REMARK  530  A    between atoms: _1141  and  _1142
REMARK  531  A    between atoms: _1142  and  _1143
REMARK  532  A    between atoms: _1142  and  _1145
REMARK  533  A    between atoms: _1145  and  _1146
REMARK  534  A    between atoms: _1146  and  _1147
REMARK  535  A    between atoms: _1150  and  _1151
REMARK  536  A    between atoms: _1151  and  _1152
REMARK  537  A    between atoms: _1151  and  _1154
REMARK  538  A    between atoms: _1154  and  _1155
REMARK  539  A    between atoms: _1162  and  _1163
REMARK  540  A    between atoms: _1163  and  _1164
REMARK  541  A    between atoms: _1167  and  _1168
REMARK  542  A    between atoms: _1168  and  _1169
REMARK  543  A    between atoms: _1168  and  _1171
REMARK  544  A    between atoms: _1171  and  _1172
REMARK  545  A    between atoms: _1181  and  _1182
REMARK  546  A    between atoms: _1182  and  _1183
REMARK  547  A    between atoms: _1182  and  _1185
REMARK  548  A    between atoms: _1185  and  _1186
REMARK  549  A    between atoms: _1186  and  _1187
REMARK  550  A    between atoms: _1190  and  _1191
REMARK  551  A    between atoms: _1191  and  _1192
REMARK  552  A    between atoms: _1191  and  _1194
REMARK  553  A    between atoms: _1196  and  _1197
REMARK  554  A    between atoms: _1197  and  _1198
REMARK  555  A    between atoms: _1197  and  _1200
REMARK  556  A    between atoms: _1202  and  _1203
REMARK  557  A    between atoms: _1203  and  _1204
REMARK  558  A    between atoms: _1207  and  _1208
REMARK  559  A    between atoms: _1208  and  _1209
REMARK  560  A    between atoms: _1211  and  _1212
REMARK  561  A    between atoms: _1212  and  _1213
REMARK  562  A    between atoms: _1215  and  _1216
REMARK  563  A    between atoms: _1216  and  _1217
REMARK  564  A    between atoms: _1216  and  _1219
REMARK  565  A    between atoms: _1221  and  _1222
REMARK  566  A    between atoms: _1222  and  _1223
REMARK  567  A    between atoms: _1222  and  _1225
REMARK  568  A    between atoms: _1225  and  _1226
REMARK  569  A    between atoms: _1232  and  _1233
REMARK  570  A    between atoms: _1233  and  _1234
REMARK  571  A    between atoms: _1233  and  _1236
REMARK  572  A    between atoms: _1239  and  _1240
REMARK  573  A    between atoms: _1240  and  _1241
REMARK  574  A    between atoms: _1240  and  _1243
REMARK  575  A    between atoms: _1247  and  _1249
REMARK  576  A    between atoms: _1247  and  _1252
REMARK  577  A    between atoms: _1251  and  _1252
REMARK  578  A    between atoms: _1251  and  _1254
REMARK  579  A    between atoms: _1253  and  _1254
REMARK  580  A    between atoms: _1253  and  _1256
REMARK  581  A    between atoms: _1254  and  _1255
REMARK  582  A    between atoms: _1255  and  _1257
REMARK  583  A    between atoms: _1256  and  _1258
REMARK  584  A    between atoms: _1265  and  _1266
REMARK  585  A    between atoms: _1266  and  _1267
REMARK  586  A    between atoms: _1266  and  _1269
REMARK  587  A    between atoms: _1272  and  _1273
REMARK  588  A    between atoms: _1273  and  _1274
REMARK  589  A    between atoms: _1273  and  _1276
REMARK  590  A    between atoms: _1276  and  _1277
REMARK  591  A    between atoms: _1280  and  _1281
REMARK  592  A    between atoms: _1281  and  _1282
REMARK  593  A    between atoms: _1281  and  _1284
REMARK  594  A    between atoms: _1287  and  _1288
REMARK  595  A    between atoms: _1288  and  _1289
REMARK  596  A    between atoms: _1291  and  _1292
REMARK  597  A    between atoms: _1292  and  _1293
REMARK  598  A    between atoms: _1292  and  _1295
REMARK  599  A    between atoms: _1295  and  _1296
REMARK  600  A    between atoms: _1296  and  _1297
REMARK  601  A    between atoms: _1301  and  _1302
REMARK  602  A    between atoms: _1307  and  _1308
REMARK  603  A    between atoms: _1308  and  _1309
REMARK  604  A    between atoms: _1308  and  _1311
REMARK  605  A    between atoms: _1311  and  _1312
REMARK  606  A    between atoms: _1312  and  _1313
REMARK  607  A    between atoms: _1315  and  _1316
REMARK  608  A    between atoms: _1316  and  _1317
REMARK  609  A    between atoms: _1319  and  _1320
REMARK  610  A    between atoms: _1320  and  _1321
REMARK  611  A    between atoms: _1320  and  _1323
REMARK  612  A    between atoms: _1323  and  _1324
REMARK  613  A    between atoms: _1324  and  _1325
REMARK  614  A    between atoms: _1325  and  _1326
REMARK  615  A    between atoms: _1330  and  _1331
REMARK  616  A    between atoms: _1331  and  _1332
REMARK  617  A    between atoms: _1334  and  _1335
REMARK  618  A    between atoms: _1335  and  _1336
REMARK  619  A    between atoms: _1335  and  _1338
REMARK  620  A    between atoms: _1341  and  _1342
REMARK  621  A    between atoms: _1342  and  _1343
REMARK  622  A    between atoms: _1342  and  _1345
REMARK  623  A    between atoms: _1345  and  _1346
REMARK  624  A    between atoms: _1346  and  _1347
REMARK  625  A    between atoms: _1347  and  _1348
REMARK  626  A    between atoms: _1350  and  _1351
REMARK  627  A    between atoms: _1351  and  _1352
REMARK  628  A    between atoms: _1351  and  _1354
REMARK  629  A    between atoms: _1357  and  _1358
REMARK  630  A    between atoms: _1358  and  _1359
REMARK  631  A    between atoms: _1358  and  _1361
REMARK  632  A    between atoms: _1361  and  _1362
REMARK  633  A    between atoms: _1365  and  _1366
REMARK  634  A    between atoms: _1366  and  _1367
REMARK  635  A    between atoms: _1366  and  _1369
REMARK  636  A    between atoms: _1369  and  _1370
REMARK  637  A    between atoms: _1373  and  _1374
REMARK  638  A    between atoms: _1374  and  _1375
REMARK  639  A    between atoms: _1374  and  _1377
REMARK  640  A    between atoms: _1377  and  _1378
REMARK  641  A    between atoms: _1383  and  _1384
REMARK  642  A    between atoms: _1384  and  _1385
REMARK  643  A    between atoms: _1384  and  _1387
REMARK  644  A    between atoms: _1387  and  _1388
REMARK  645  A    between atoms: _1391  and  _1392
REMARK  646  A    between atoms: _1392  and  _1393
REMARK  647  A    between atoms: _1392  and  _1395
REMARK  648  A    between atoms: _1395  and  _1396
REMARK  649  A    between atoms: _1396  and  _1397
REMARK  650  A    between atoms: _1397  and  _1398
REMARK  651  A    between atoms: _1400  and  _1401
REMARK  652  A    between atoms: _1401  and  _1402
REMARK  653  A    between atoms: _1401  and  _1404
REMARK  654  A    between atoms: _1404  and  _1405
REMARK  655  A    between atoms: _1405  and  _1406
REMARK  656  A    between atoms: _1409  and  _1410
REMARK  657  A    between atoms: _1410  and  _1411
REMARK  658  A    between atoms: _1410  and  _1413
REMARK  659  A    between atoms: _1413  and  _1414
REMARK  660  A    between atoms: _1417  and  _1418
REMARK  661  A    between atoms: _1418  and  _1419
REMARK  662  A    between atoms: _1418  and  _1421
REMARK  663  A    between atoms: _1421  and  _1422
REMARK  664  A    between atoms: _1422  and  _1423
REMARK  665  A    between atoms: _1426  and  _1427
REMARK  666  A    between atoms: _1427  and  _1428
REMARK  667  A    between atoms: _1427  and  _1430
REMARK  668  A    between atoms: _1433  and  _1434
REMARK  669  A    between atoms: _1434  and  _1435
REMARK  670  A    between atoms: _1434  and  _1437
REMARK  671  A    between atoms: _1437  and  _1438
REMARK  672  A    between atoms: _1438  and  _1439
REMARK  673  A    between atoms: _1442  and  _1443
REMARK  674  A    between atoms: _1443  and  _1444
REMARK  675  A    between atoms: _1443  and  _1446
REMARK  676  A    between atoms: _1446  and  _1447
REMARK  677  A    between atoms: _1454  and  _1455
REMARK  678  A    between atoms: _1455  and  _1456
REMARK  679  A    between atoms: _1455  and  _1458
REMARK  680  A    between atoms: _1458  and  _1459
REMARK  681  A    between atoms: _1462  and  _1463
REMARK  682  A    between atoms: _1463  and  _1464
REMARK  683  A    between atoms: _1463  and  _1466
REMARK  684  A    between atoms: _1466  and  _1467
REMARK  685  A    between atoms: _1467  and  _1468
REMARK  686  A    between atoms: _1471  and  _1472
REMARK  687  A    between atoms: _1472  and  _1473
REMARK  688  A    between atoms: _1472  and  _1475
REMARK  689  A    between atoms: _1475  and  _1476
REMARK  690  A    between atoms: _1476  and  _1477
REMARK  691  A    between atoms: _1480  and  _1481
REMARK  692  A    between atoms: _1481  and  _1482
REMARK  693  A    between atoms: _1481  and  _1484
REMARK  694  A    between atoms: _1484  and  _1485
REMARK  695  A    between atoms: _1485  and  _1486
REMARK  696  A    between atoms: _1486  and  _1487
REMARK  697  A    between atoms: _1491  and  _1492
REMARK  698  A    between atoms: _1492  and  _1493
REMARK  699  A    between atoms: _1492  and  _1495
REMARK  700  A    between atoms: _1495  and  _1496
REMARK  701  A    between atoms: _1496  and  _1497
REMARK  702  A    between atoms: _1497  and  _1498
REMARK  703  A    between atoms: _1502  and  _1503
REMARK  704  A    between atoms: _1503  and  _1504
REMARK  705  A    between atoms: _1503  and  _1506
REMARK  706  A    between atoms: _1506  and  _1507
REMARK  707  A    between atoms: _1510  and  _1511
REMARK  708  A    between atoms: _1511  and  _1512
REMARK  709  A    between atoms: _1511  and  _1514
REMARK  710  A    between atoms: _1514  and  _1515
REMARK  711  A    between atoms: _1515  and  _1516
REMARK  712  A    between atoms: _1516  and  _1517
REMARK  713  A    between atoms: _1519  and  _1520
REMARK  714  A    between atoms: _1520  and  _1521
REMARK  715  A    between atoms: _1520  and  _1523
REMARK  716  A    between atoms: _1523  and  _1524
REMARK  717  A    between atoms: _1524  and  _1525
REMARK  718  A    between atoms: _1528  and  _1529
REMARK  719  A    between atoms: _1529  and  _1530
REMARK  720  A    between atoms: _1529  and  _1532
REMARK  721  A    between atoms: _1532  and  _1533
REMARK  722  A    between atoms: _1536  and  _1537
REMARK  723  A    between atoms: _1537  and  _1538
REMARK  724  A    between atoms: _1537  and  _1540
REMARK  725  A    between atoms: _1543  and  _1544
REMARK  726  A    between atoms: _1544  and  _1545
REMARK  727  A    between atoms: _1544  and  _1547
REMARK  728  A    between atoms: _1547  and  _1548
REMARK  729  A    between atoms: _1548  and  _1549
REMARK  730  A    between atoms: _1549  and  _1550
REMARK  731  A    between atoms: _1552  and  _1553
REMARK  732  A    between atoms: _1553  and  _1554
REMARK  733  A    between atoms: _1553  and  _1556
REMARK  734  A    between atoms: _1556  and  _1557
REMARK  735  A    between atoms: _1557  and  _1558
REMARK  736  A    between atoms: _1558  and  _1559
REMARK  737  A    between atoms: _1561  and  _1562
REMARK  738  A    between atoms: _1562  and  _1563
REMARK  739  A    between atoms: _1562  and  _1565
REMARK  740  A    between atoms: _1565  and  _1566
REMARK  741  A    between atoms: _1571  and  _1572
REMARK  742  A    between atoms: _1572  and  _1573
REMARK  743  A    between atoms: _1572  and  _1575
REMARK  744  A    between atoms: _1577  and  _1578
REMARK  745  A    between atoms: _1578  and  _1579
REMARK  746  A    between atoms: _1578  and  _1581
REMARK  747  A    between atoms: _1581  and  _1582
REMARK  748  A    between atoms: _1582  and  _1583
REMARK  749  A    between atoms: _1586  and  _1587
REMARK  750  A    between atoms: _1587  and  _1588
REMARK  751  A    between atoms: _1587  and  _1590
REMARK  752  A    between atoms: _1590  and  _1591
REMARK  753  A    between atoms: _1597  and  _1598
REMARK  754  A    between atoms: _1598  and  _1599
REMARK  755  A    between atoms: _1598  and  _1601
REMARK  756  A    between atoms: _1601  and  _1602
REMARK  757  A    between atoms: _1605  and  _1606
REMARK  758  A    between atoms: _1606  and  _1607
REMARK  759  A    between atoms: _1609  and  _1610
REMARK  760  A    between atoms: _1610  and  _1611
REMARK  761  A    between atoms: _1610  and  _1613
REMARK  762  A    between atoms: _1613  and  _1614
REMARK  763  A    between atoms: _1622  and  _1623
REMARK  764  A    between atoms: _1628  and  _1629
REMARK  765  A    between atoms: _1629  and  _1630
REMARK  766  A    between atoms: _1629  and  _1632
REMARK  767  A    between atoms: _1632  and  _1633
REMARK  768  A    between atoms: _1636  and  _1637
REMARK  769  A    between atoms: _1637  and  _1638
REMARK  770  A    between atoms: _1637  and  _1640
REMARK  771  A    between atoms: _1643  and  _1644
REMARK  772  A    between atoms: _1644  and  _1645
REMARK  773  A    between atoms: _1644  and  _1647
REMARK  774  A    between atoms: _1647  and  _1648
REMARK  775  A    between atoms: _1651  and  _1652
REMARK  776  A    between atoms: _1652  and  _1653
REMARK  777  A    between atoms: _1652  and  _1655
REMARK  778  A    between atoms: _1655  and  _1656
REMARK  779  A    between atoms: _1662  and  _1663
REMARK  780  A    between atoms: _1663  and  _1664
REMARK  781  A    between atoms: _1663  and  _1666
REMARK  782  A    between atoms: _1669  and  _1670
REMARK  783  A    between atoms: _1670  and  _1671
REMARK  784  A    between atoms: _1670  and  _1673
REMARK  785  A    between atoms: _1673  and  _1674
REMARK  786  A    between atoms: _1674  and  _1675
REMARK                            x       y       z     vdW  Elec       q    Type
REMARK                         _______ _______ _______ _____ _____    ______ ____
ROOT
ATOM      1  C   UNL     1       4.350  10.302  26.725  0.00  0.00    +0.000 C 
ENDROOT
TORSDOF 0
REMARK  Name = /Users/mlugowska/PhD/ML_residence_time_prediction/protein_files/5J64_protein.pdb
REMARK  786 active torsions:
REMARK  status: ('A' for Active; 'I' for Inactive)
REMARK    1  A    between atoms: _2  and  _3
REMARK    2  A    between atoms: _2  and  _5
REMARK    3  A    between atoms: _5  and  _6
REMARK    4  A    between atoms: _6  and  _7
REMARK    5  A    between atoms: _10  and  _11
REMARK    6  A    between atoms: _11  and  _12
REMARK    7  A    between atoms: _11  and  _14
REMARK    8  A    between atoms: _17  and  _18
REMARK    9  A    between atoms: _18  and  _19
REMARK   10  A    between atoms: _18  and  _21
REMARK   11  A    between atoms: _21  and  _22
REMARK   12  A    between atoms: _22  and  _23
REMARK   13  A    between atoms: _26  and  _27
REMARK   14  A    between atoms: _27  and  _28
REMARK   15  A    between atoms: _27  and  _30
REMARK   16  A    between atoms: _33  and  _34
REMARK   17  A    between atoms: _34  and  _35
REMARK   18  A    between atoms: _34  and  _37
REMARK   19  A    between atoms: _37  and  _38
REMARK   20  A    between atoms: _44  and  _45
REMARK   21  A    between atoms: _45  and  _46
REMARK   22  A    between atoms: _49  and  _50
REMARK   23  A    between atoms: _50  and  _51
REMARK   24  A    between atoms: _50  and  _53
REMARK   25  A    between atoms: _53  and  _54
REMARK   26  A    between atoms: _60  and  _61
REMARK   27  A    between atoms: _61  and  _62
REMARK   28  A    between atoms: _61  and  _64
REMARK   29  A    between atoms: _64  and  _65
REMARK   30  A    between atoms: _65  and  _66
REMARK   31  A    between atoms: _69  and  _70
REMARK   32  A    between atoms: _70  and  _71
REMARK   33  A    between atoms: _74  and  _75
REMARK   34  A    between atoms: _75  and  _76
REMARK   35  A    between atoms: _75  and  _78
REMARK   36  A    between atoms: _78  and  _79
REMARK   37  A    between atoms: _79  and  _80
REMARK   38  A    between atoms: _83  and  _84
REMARK   39  A    between atoms: _84  and  _85
REMARK   40  A    between atoms: _84  and  _87
REMARK   41  A    between atoms: _87  and  _88
REMARK   42  A    between atoms: _91  and  _92
REMARK   43  A    between atoms: _92  and  _93
REMARK   44  A    between atoms: _96  and  _97
REMARK   45  A    between atoms: _97  and  _98
REMARK   46  A    between atoms: _97  and  _100
REMARK   47  A    between atoms: _100  and  _101
REMARK   48  A    between atoms: _101  and  _102
REMARK   49  A    between atoms: _105  and  _106
REMARK   50  A    between atoms: _106  and  _107
REMARK   51  A    between atoms: _106  and  _109
REMARK   52  A    between atoms: _109  and  _110
REMARK   53  A    between atoms: _113  and  _114
REMARK   54  A    between atoms: _114  and  _115
REMARK   55  A    between atoms: _114  and  _117
REMARK   56  A    between atoms: _117  and  _118
REMARK   57  A    between atoms: _118  and  _119
REMARK   58  A    between atoms: _121  and  _122
REMARK   59  A    between atoms: _122  and  _123
REMARK   60  A    between atoms: _122  and  _125
REMARK   61  A    between atoms: _127  and  _128
REMARK   62  A    between atoms: _128  and  _129
REMARK   63  A    between atoms: _128  and  _131
REMARK   64  A    between atoms: _131  and  _132
REMARK   65  A    between atoms: _135  and  _136
REMARK   66  A    between atoms: _136  and  _137
REMARK   67  A    between atoms: _136  and  _139
REMARK   68  A    between atoms: _139  and  _140
REMARK   69  A    between atoms: _143  and  _144
REMARK   70  A    between atoms: _144  and  _145
REMARK   71  A    between atoms: _144  and  _147
REMARK   72  A    between atoms: _147  and  _148
REMARK   73  A    between atoms: _151  and  _152
REMARK   74  A    between atoms: _152  and  _153
REMARK   75  A    between atoms: _152  and  _155
REMARK   76  A    between atoms: _155  and  _156
REMARK   77  A    between atoms: _159  and  _160
REMARK   78  A    between atoms: _160  and  _161
REMARK   79  A    between atoms: _160  and  _163
REMARK   80  A    between atoms: _166  and  _167
REMARK   81  A    between atoms: _167  and  _170
REMARK   82  A    between atoms: _170  and  _171
REMARK   83  A    between atoms: _181  and  _183
REMARK   84  A    between atoms: _183  and  _184
REMARK   85  A    between atoms: _189  and  _194
REMARK   86  A    between atoms: _192  and  _195
REMARK   87  A    between atoms: _193  and  _194
REMARK   88  A    between atoms: _195  and  _196
REMARK   89  A    between atoms: _201  and  _202
REMARK   90  A    between atoms: _202  and  _203
REMARK   91  A    between atoms: _202  and  _205
REMARK   92  A    between atoms: _207  and  _208
REMARK   93  A    between atoms: _208  and  _209
REMARK   94  A    between atoms: _208  and  _211
REMARK   95  A    between atoms: _211  and  _212
REMARK   96  A    between atoms: _215  and  _216
REMARK   97  A    between atoms: _216  and  _217
REMARK   98  A    between atoms: _216  and  _219
REMARK   99  A    between atoms: _219  and  _220
REMARK  100  A    between atoms: _220  and  _221
REMARK  101  A    between atoms: _221  and  _222
REMARK  102  A    between atoms: _224  and  _225
REMARK  103  A    between atoms: _225  and  _226
REMARK  104  A    between atoms: _225  and  _228
REMARK  105  A    between atoms: _228  and  _229
REMARK  106  A    between atoms: _229  and  _230
REMARK  107  A    between atoms: _233  and  _234
REMARK  108  A    between atoms: _234  and  _235
REMARK  109  A    between atoms: _234  and  _237
REMARK  110  A    between atoms: _237  and  _238
REMARK  111  A    between atoms: _241  and  _242
REMARK  112  A    between atoms: _242  and  _243
REMARK  113  A    between atoms: _242  and  _245
REMARK  114  A    between atoms: _245  and  _246
REMARK  115  A    between atoms: _252  and  _253
REMARK  116  A    between atoms: _253  and  _254
REMARK  117  A    between atoms: _253  and  _256
REMARK  118  A    between atoms: _256  and  _257
REMARK  119  A    between atoms: _260  and  _261
REMARK  120  A    between atoms: _261  and  _262
REMARK  121  A    between atoms: _261  and  _264
REMARK  122  A    between atoms: _264  and  _265
REMARK  123  A    between atoms: _265  and  _266
REMARK  124  A    between atoms: _266  and  _267
REMARK  125  A    between atoms: _271  and  _272
REMARK  126  A    between atoms: _272  and  _273
REMARK  127  A    between atoms: _272  and  _275
REMARK  128  A    between atoms: _275  and  _276
REMARK  129  A    between atoms: _276  and  _277
REMARK  130  A    between atoms: _280  and  _281
REMARK  131  A    between atoms: _281  and  _282
REMARK  132  A    between atoms: _281  and  _284
REMARK  133  A    between atoms: _284  and  _285
REMARK  134  A    between atoms: _288  and  _289
REMARK  135  A    between atoms: _289  and  _292
REMARK  136  A    between atoms: _292  and  _293
REMARK  137  A    between atoms: _309  and  _310
REMARK  138  A    between atoms: _309  and  _312
REMARK  139  A    between atoms: _312  and  _313
REMARK  140  A    between atoms: _316  and  _317
REMARK  141  A    between atoms: _317  and  _318
REMARK  142  A    between atoms: _317  and  _320
REMARK  143  A    between atoms: _322  and  _323
REMARK  144  A    between atoms: _323  and  _324
REMARK  145  A    between atoms: _323  and  _326
REMARK  146  A    between atoms: _328  and  _329
REMARK  147  A    between atoms: _329  and  _330
REMARK  148  A    between atoms: _329  and  _332
REMARK  149  A    between atoms: _332  and  _333
REMARK  150  A    between atoms: _336  and  _337
REMARK  151  A    between atoms: _337  and  _338
REMARK  152  A    between atoms: _341  and  _342
REMARK  153  A    between atoms: _342  and  _343
REMARK  154  A    between atoms: _342  and  _345
REMARK  155  A    between atoms: _345  and  _346
REMARK  156  A    between atoms: _349  and  _350
REMARK  157  A    between atoms: _350  and  _351
REMARK  158  A    between atoms: _350  and  _353
REMARK  159  A    between atoms: _353  and  _354
REMARK  160  A    between atoms: _357  and  _358
REMARK  161  A    between atoms: _358  and  _359
REMARK  162  A    between atoms: _358  and  _361
REMARK  163  A    between atoms: _361  and  _362
REMARK  164  A    between atoms: _362  and  _363
REMARK  165  A    between atoms: _363  and  _364
REMARK  166  A    between atoms: _366  and  _367
REMARK  167  A    between atoms: _367  and  _368
REMARK  168  A    between atoms: _367  and  _370
REMARK  169  A    between atoms: _370  and  _371
REMARK  170  A    between atoms: _374  and  _375
REMARK  171  A    between atoms: _375  and  _376
REMARK  172  A    between atoms: _375  and  _378
REMARK  173  A    between atoms: _378  and  _379
REMARK  174  A    between atoms: _379  and  _380
REMARK  175  A    between atoms: _380  and  _381
REMARK  176  A    between atoms: _385  and  _386
REMARK  177  A    between atoms: _386  and  _387
REMARK  178  A    between atoms: _386  and  _389
REMARK  179  A    between atoms: _389  and  _390
REMARK  180  A    between atoms: _397  and  _398
REMARK  181  A    between atoms: _398  and  _399
REMARK  182  A    between atoms: _398  and  _401
REMARK  183  A    between atoms: _401  and  _402
REMARK  184  A    between atoms: _402  and  _403
REMARK  185  A    between atoms: _406  and  _407
REMARK  186  A    between atoms: _407  and  _408
REMARK  187  A    between atoms: _407  and  _410
REMARK  188  A    between atoms: _412  and  _413
REMARK  189  A    between atoms: _413  and  _414
REMARK  190  A    between atoms: _413  and  _416
REMARK  191  A    between atoms: _416  and  _417
REMARK  192  A    between atoms: _420  and  _421
REMARK  193  A    between atoms: _421  and  _422
REMARK  194  A    between atoms: _421  and  _424
REMARK  195  A    between atoms: _427  and  _428
REMARK  196  A    between atoms: _428  and  _429
REMARK  197  A    between atoms: _428  and  _431
REMARK  198  A    between atoms: _431  and  _432
REMARK  199  A    between atoms: _436  and  _437
REMARK  200  A    between atoms: _442  and  _443
REMARK  201  A    between atoms: _443  and  _444
REMARK  202  A    between atoms: _443  and  _446
REMARK  203  A    between atoms: _448  and  _449
REMARK  204  A    between atoms: _449  and  _450
REMARK  205  A    between atoms: _449  and  _452
REMARK  206  A    between atoms: _452  and  _453
REMARK  207  A    between atoms: _453  and  _454
REMARK  208  A    between atoms: _454  and  _455
REMARK  209  A    between atoms: _457  and  _458
REMARK  210  A    between atoms: _458  and  _459
REMARK  211  A    between atoms: _458  and  _461
REMARK  212  A    between atoms: _461  and  _462
REMARK  213  A    between atoms: _465  and  _466
REMARK  214  A    between atoms: _466  and  _467
REMARK  215  A    between atoms: _466  and  _469
REMARK  216  A    between atoms: _469  and  _470
REMARK  217  A    between atoms: _473  and  _474
REMARK  218  A    between atoms: _474  and  _475
REMARK  219  A    between atoms: _474  and  _477
REMARK  220  A    between atoms: _479  and  _480
REMARK  221  A    between atoms: _480  and  _481
REMARK  222  A    between atoms: _483  and  _484
REMARK  223  A    between atoms: _484  and  _485
REMARK  224  A    between atoms: _484  and  _487
REMARK  225  A    between atoms: _487  and  _488
REMARK  226  A    between atoms: _488  and  _489
REMARK  227  A    between atoms: _489  and  _490
REMARK  228  A    between atoms: _492  and  _493
REMARK  229  A    between atoms: _493  and  _494
REMARK  230  A    between atoms: _493  and  _496
REMARK  231  A    between atoms: _496  and  _497
REMARK  232  A    between atoms: _497  and  _498
REMARK  233  A    between atoms: _501  and  _502
REMARK  234  A    between atoms: _502  and  _503
REMARK  235  A    between atoms: _502  and  _505
REMARK  236  A    between atoms: _505  and  _506
REMARK  237  A    between atoms: _509  and  _510
REMARK  238  A    between atoms: _510  and  _511
REMARK  239  A    between atoms: _510  and  _513
REMARK  240  A    between atoms: _513  and  _514
REMARK  241  A    between atoms: _519  and  _520
REMARK  242  A    between atoms: _520  and  _521
REMARK  243  A    between atoms: _520  and  _523
REMARK  244  A    between atoms: _523  and  _524
REMARK  245  A    between atoms: _527  and  _528
REMARK  246  A    between atoms: _528  and  _529
REMARK  247  A    between atoms: _528  and  _531
REMARK  248  A    between atoms: _531  and  _532
REMARK  249  A    between atoms: _535  and  _536
REMARK  250  A    between atoms: _536  and  _537
REMARK  251  A    between atoms: _536  and  _539
REMARK  252  A    between atoms: _539  and  _540
REMARK  253  A    between atoms: _543  and  _544
REMARK  254  A    between atoms: _544  and  _545
REMARK  255  A    between atoms: _544  and  _547
REMARK  256  A    between atoms: _547  and  _548
REMARK  257  A    between atoms: _552  and  _553
REMARK  258  A    between atoms: _558  and  _559
REMARK  259  A    between atoms: _559  and  _560
REMARK  260  A    between atoms: _559  and  _562
REMARK  261  A    between atoms: _562  and  _563
REMARK  262  A    between atoms: _566  and  _567
REMARK  263  A    between atoms: _567  and  _568
REMARK  264  A    between atoms: _567  and  _570
REMARK  265  A    between atoms: _570  and  _571
REMARK  266  A    between atoms: _571  and  _572
REMARK  267  A    between atoms: _572  and  _573
REMARK  268  A    between atoms: _575  and  _576
REMARK  269  A    between atoms: _576  and  _577
REMARK  270  A    between atoms: _576  and  _579
REMARK  271  A    between atoms: _579  and  _580
REMARK  272  A    between atoms: _580  and  _581
REMARK  273  A    between atoms: _584  and  _585
REMARK  274  A    between atoms: _585  and  _586
REMARK  275  A    between atoms: _585  and  _588
REMARK  276  A    between atoms: _588  and  _589
REMARK  277  A    between atoms: _592  and  _593
REMARK  278  A    between atoms: _593  and  _594
REMARK  279  A    between atoms: _593  and  _596
REMARK  280  A    between atoms: _596  and  _597
REMARK  281  A    between atoms: _597  and  _598
REMARK  282  A    between atoms: _598  and  _599
REMARK  283  A    between atoms: _603  and  _604
REMARK  284  A    between atoms: _604  and  _605
REMARK  285  A    between atoms: _604  and  _607
REMARK  286  A    between atoms: _610  and  _611
REMARK  287  A    between atoms: _611  and  _612
REMARK  288  A    between atoms: _611  and  _614
REMARK  289  A    between atoms: _614  and  _615
REMARK  290  A    between atoms: _618  and  _619
REMARK  291  A    between atoms: _619  and  _620
REMARK  292  A    between atoms: _619  and  _622
REMARK  293  A    between atoms: _625  and  _626
REMARK  294  A    between atoms: _626  and  _627
REMARK  295  A    between atoms: _626  and  _629
REMARK  296  A    between atoms: _629  and  _630
REMARK  297  A    between atoms: _633  and  _634
REMARK  298  A    between atoms: _634  and  _635
REMARK  299  A    between atoms: _634  and  _637
REMARK  300  A    between atoms: _640  and  _641
REMARK  301  A    between atoms: _641  and  _642
REMARK  302  A    between atoms: _641  and  _644
REMARK  303  A    between atoms: _644  and  _645
REMARK  304  A    between atoms: _648  and  _649
REMARK  305  A    between atoms: _649  and  _650
REMARK  306  A    between atoms: _649  and  _652
REMARK  307  A    between atoms: _655  and  _656
REMARK  308  A    between atoms: _656  and  _657
REMARK  309  A    between atoms: _659  and  _660
REMARK  310  A    between atoms: _660  and  _661
REMARK  311  A    between atoms: _660  and  _663
REMARK  312  A    between atoms: _663  and  _664
REMARK  313  A    between atoms: _667  and  _668
REMARK  314  A    between atoms: _668  and  _669
REMARK  315  A    between atoms: _671  and  _672
REMARK  316  A    between atoms: _672  and  _673
REMARK  317  A    between atoms: _672  and  _675
REMARK  318  A    between atoms: _675  and  _676
REMARK  319  A    between atoms: _676  and  _677
REMARK  320  A    between atoms: _679  and  _680
REMARK  321  A    between atoms: _680  and  _681
REMARK  322  A    between atoms: _680  and  _683
REMARK  323  A    between atoms: _686  and  _687
REMARK  324  A    between atoms: _687  and  _688
REMARK  325  A    between atoms: _687  and  _690
REMARK  326  A    between atoms: _690  and  _691
REMARK  327  A    between atoms: _691  and  _692
REMARK  328  A    between atoms: _692  and  _693
REMARK  329  A    between atoms: _695  and  _696
REMARK  330  A    between atoms: _696  and  _697
REMARK  331  A    between atoms: _700  and  _701
REMARK  332  A    between atoms: _701  and  _702
REMARK  333  A    between atoms: _701  and  _704
REMARK  334  A    between atoms: _704  and  _705
REMARK  335  A    between atoms: _708  and  _709
REMARK  336  A    between atoms: _709  and  _710
REMARK  337  A    between atoms: _709  and  _712
REMARK  338  A    between atoms: _712  and  _713
REMARK  339  A    between atoms: _716  and  _717
REMARK  340  A    between atoms: _717  and  _720
REMARK  341  A    between atoms: _720  and  _721
REMARK  342  A    between atoms: _733  and  _734
REMARK  343  A    between atoms: _733  and  _735
REMARK  344  A    between atoms: _741  and  _744
REMARK  345  A    between atoms: _744  and  _745
REMARK  346  A    between atoms: _758  and  _759
REMARK  347  A    between atoms: _758  and  _761
REMARK  348  A    between atoms: _759  and  _760
REMARK  349  A    between atoms: _765  and  _766
REMARK  350  A    between atoms: _768  and  _769
REMARK  351  A    between atoms: _769  and  _770
REMARK  352  A    between atoms: _769  and  _772
REMARK  353  A    between atoms: _775  and  _776
REMARK  354  A    between atoms: _776  and  _777
REMARK  355  A    between atoms: _776  and  _779
REMARK  356  A    between atoms: _779  and  _780
REMARK  357  A    between atoms: _783  and  _784
REMARK  358  A    between atoms: _784  and  _785
REMARK  359  A    between atoms: _788  and  _789
REMARK  360  A    between atoms: _789  and  _790
REMARK  361  A    between atoms: _789  and  _792
REMARK  362  A    between atoms: _792  and  _793
REMARK  363  A    between atoms: _793  and  _794
REMARK  364  A    between atoms: _794  and  _795
REMARK  365  A    between atoms: _797  and  _798
REMARK  366  A    between atoms: _798  and  _799
REMARK  367  A    between atoms: _798  and  _801
REMARK  368  A    between atoms: _803  and  _804
REMARK  369  A    between atoms: _804  and  _805
REMARK  370  A    between atoms: _807  and  _808
REMARK  371  A    between atoms: _808  and  _809
REMARK  372  A    between atoms: _808  and  _811
REMARK  373  A    between atoms: _814  and  _815
REMARK  374  A    between atoms: _815  and  _816
REMARK  375  A    between atoms: _815  and  _818
REMARK  376  A    between atoms: _818  and  _819
REMARK  377  A    between atoms: _819  and  _820
REMARK  378  A    between atoms: _820  and  _821
REMARK  379  A    between atoms: _823  and  _824
REMARK  380  A    between atoms: _824  and  _825
REMARK  381  A    between atoms: _828  and  _829
REMARK  382  A    between atoms: _829  and  _830
REMARK  383  A    between atoms: _829  and  _832
REMARK  384  A    between atoms: _832  and  _833
REMARK  385  A    between atoms: _839  and  _840
REMARK  386  A    between atoms: _840  and  _841
REMARK  387  A    between atoms: _840  and  _843
REMARK  388  A    between atoms: _843  and  _844
REMARK  389  A    between atoms: _844  and  _845
REMARK  390  A    between atoms: _847  and  _848
REMARK  391  A    between atoms: _848  and  _849
REMARK  392  A    between atoms: _848  and  _851
REMARK  393  A    between atoms: _851  and  _852
REMARK  394  A    between atoms: _852  and  _853
REMARK  395  A    between atoms: _856  and  _857
REMARK  396  A    between atoms: _857  and  _858
REMARK  397  A    between atoms: _861  and  _862
REMARK  398  A    between atoms: _862  and  _863
REMARK  399  A    between atoms: _862  and  _865
REMARK  400  A    between atoms: _865  and  _866
REMARK  401  A    between atoms: _869  and  _870
REMARK  402  A    between atoms: _870  and  _871
REMARK  403  A    between atoms: _870  and  _873
REMARK  404  A    between atoms: _873  and  _874
REMARK  405  A    between atoms: _874  and  _875
REMARK  406  A    between atoms: _878  and  _879
REMARK  407  A    between atoms: _879  and  _880
REMARK  408  A    between atoms: _883  and  _884
REMARK  409  A    between atoms: _884  and  _885
REMARK  410  A    between atoms: _887  and  _888
REMARK  411  A    between atoms: _888  and  _889
REMARK  412  A    between atoms: _892  and  _893
REMARK  413  A    between atoms: _893  and  _894
REMARK  414  A    between atoms: _893  and  _896
REMARK  415  A    between atoms: _896  and  _897
REMARK  416  A    between atoms: _900  and  _901
REMARK  417  A    between atoms: _901  and  _902
REMARK  418  A    between atoms: _901  and  _904
REMARK  419  A    between atoms: _904  and  _905
REMARK  420  A    between atoms: _908  and  _909
REMARK  421  A    between atoms: _909  and  _910
REMARK  422  A    between atoms: _909  and  _912
REMARK  423  A    between atoms: _914  and  _915
REMARK  424  A    between atoms: _915  and  _916
REMARK  425  A    between atoms: _915  and  _918
REMARK  426  A    between atoms: _918  and  _919
REMARK  427  A    between atoms: _919  and  _920
REMARK  428  A    between atoms: _922  and  _923
REMARK  429  A    between atoms: _923  and  _924
REMARK  430  A    between atoms: _923  and  _926
REMARK  431  A    between atoms: _926  and  _927
REMARK  432  A    between atoms: _930  and  _931
REMARK  433  A    between atoms: _931  and  _932
REMARK  434  A    between atoms: _934  and  _935
REMARK  435  A    between atoms: _935  and  _936
REMARK  436  A    between atoms: _935  and  _938
REMARK  437  A    between atoms: _938  and  _939
REMARK  438  A    between atoms: _939  and  _940
REMARK  439  A    between atoms: _943  and  _944
REMARK  440  A    between atoms: _944  and  _945
REMARK  441  A    between atoms: _944  and  _947
REMARK  442  A    between atoms: _947  and  _948
REMARK  443  A    between atoms: _954  and  _955
REMARK  444  A    between atoms: _955  and  _956
REMARK  445  A    between atoms: _958  and  _959
REMARK  446  A    between atoms: _959  and  _960
REMARK  447  A    between atoms: _959  and  _962
REMARK  448  A    between atoms: _965  and  _966
REMARK  449  A    between atoms: _966  and  _967
REMARK  450  A    between atoms: _969  and  _970
REMARK  451  A    between atoms: _970  and  _971
REMARK  452  A    between atoms: _970  and  _973
REMARK  453  A    between atoms: _973  and  _974
REMARK  454  A    between atoms: _980  and  _981
REMARK  455  A    between atoms: _981  and  _982
REMARK  456  A    between atoms: _981  and  _984
REMARK  457  A    between atoms: _984  and  _985
REMARK  458  A    between atoms: _992  and  _993
REMARK  459  A    between atoms: _993  and  _994
REMARK  460  A    between atoms: _993  and  _996
REMARK  461  A    between atoms: _998  and  _999
REMARK  462  A    between atoms: _999  and  _1000
REMARK  463  A    between atoms: _1003  and  _1004
REMARK  464  A    between atoms: _1004  and  _1005
REMARK  465  A    between atoms: _1004  and  _1007
REMARK  466  A    between atoms: _1007  and  _1008
REMARK  467  A    between atoms: _1015  and  _1016
REMARK  468  A    between atoms: _1016  and  _1017
REMARK  469  A    between atoms: _1016  and  _1019
REMARK  470  A    between atoms: _1019  and  _1020
REMARK  471  A    between atoms: _1023  and  _1024
REMARK  472  A    between atoms: _1024  and  _1025
REMARK  473  A    between atoms: _1024  and  _1027
REMARK  474  A    between atoms: _1030  and  _1031
REMARK  475  A    between atoms: _1031  and  _1032
REMARK  476  A    between atoms: _1035  and  _1036
REMARK  477  A    between atoms: _1036  and  _1037
REMARK  478  A    between atoms: _1036  and  _1039
REMARK  479  A    between atoms: _1039  and  _1040
REMARK  480  A    between atoms: _1040  and  _1041
REMARK  481  A    between atoms: _1044  and  _1045
REMARK  482  A    between atoms: _1045  and  _1046
REMARK  483  A    between atoms: _1045  and  _1048
REMARK  484  A    between atoms: _1048  and  _1049
REMARK  485  A    between atoms: _1049  and  _1050
REMARK  486  A    between atoms: _1050  and  _1051
REMARK  487  A    between atoms: _1053  and  _1054
REMARK  488  A    between atoms: _1054  and  _1055
REMARK  489  A    between atoms: _1054  and  _1057
REMARK  490  A    between atoms: _1060  and  _1061
REMARK  491  A    between atoms: _1061  and  _1062
REMARK  492  A    between atoms: _1061  and  _1064
REMARK  493  A    between atoms: _1067  and  _1068
REMARK  494  A    between atoms: _1068  and  _1069
REMARK  495  A    between atoms: _1068  and  _1071
REMARK  496  A    between atoms: _1074  and  _1075
REMARK  497  A    between atoms: _1075  and  _1076
REMARK  498  A    between atoms: _1075  and  _1078
REMARK  499  A    between atoms: _1078  and  _1079
REMARK  500  A    between atoms: _1082  and  _1083
REMARK  501  A    between atoms: _1083  and  _1084
REMARK  502  A    between atoms: _1083  and  _1086
REMARK  503  A    between atoms: _1089  and  _1090
REMARK  504  A    between atoms: _1090  and  _1091
REMARK  505  A    between atoms: _1090  and  _1093
REMARK  506  A    between atoms: _1093  and  _1094
REMARK  507  A    between atoms: _1094  and  _1095
REMARK  508  A    between atoms: _1095  and  _1096
REMARK  509  A    between atoms: _1098  and  _1099
REMARK  510  A    between atoms: _1099  and  _1100
REMARK  511  A    between atoms: _1099  and  _1102
REMARK  512  A    between atoms: _1102  and  _1103
REMARK  513  A    between atoms: _1108  and  _1109
REMARK  514  A    between atoms: _1109  and  _1110
REMARK  515  A    between atoms: _1109  and  _1112
REMARK  516  A    between atoms: _1112  and  _1113
REMARK  517  A    between atoms: _1116  and  _1117
REMARK  518  A    between atoms: _1117  and  _1118
REMARK  519  A    between atoms: _1117  and  _1120
REMARK  520  A    between atoms: _1120  and  _1121
REMARK  521  A    between atoms: _1124  and  _1125
REMARK  522  A    between atoms: _1125  and  _1126
REMARK  523  A    between atoms: _1125  and  _1128
REMARK  524  A    between atoms: _1128  and  _1129
REMARK  525  A    between atoms: _1132  and  _1133
REMARK  526  A    between atoms: _1133  and  _1134
REMARK  527  A    between atoms: _1133  and  _1136
REMARK  528  A    between atoms: _1136  and  _1137
REMARK  529  A    between atoms: _1137  and  _1138
REMARK  530  A    between atoms: _1141  and  _1142
REMARK  531  A    between atoms: _1142  and  _1143
REMARK  532  A    between atoms: _1142  and  _1145
REMARK  533  A    between atoms: _1145  and  _1146
REMARK  534  A    between atoms: _1146  and  _1147
REMARK  535  A    between atoms: _1150  and  _1151
REMARK  536  A    between atoms: _1151  and  _1152
REMARK  537  A    between atoms: _1151  and  _1154
REMARK  538  A    between atoms: _1154  and  _1155
REMARK  539  A    between atoms: _1162  and  _1163
REMARK  540  A    between atoms: _1163  and  _1164
REMARK  541  A    between atoms: _1167  and  _1168
REMARK  542  A    between atoms: _1168  and  _1169
REMARK  543  A    between atoms: _1168  and  _1171
REMARK  544  A    between atoms: _1171  and  _1172
REMARK  545  A    between atoms: _1181  and  _1182
REMARK  546  A    between atoms: _1182  and  _1183
REMARK  547  A    between atoms: _1182  and  _1185
REMARK  548  A    between atoms: _1185  and  _1186
REMARK  549  A    between atoms: _1186  and  _1187
REMARK  550  A    between atoms: _1190  and  _1191
REMARK  551  A    between atoms: _1191  and  _1192
REMARK  552  A    between atoms: _1191  and  _1194
REMARK  553  A    between atoms: _1196  and  _1197
REMARK  554  A    between atoms: _1197  and  _1198
REMARK  555  A    between atoms: _1197  and  _1200
REMARK  556  A    between atoms: _1202  and  _1203
REMARK  557  A    between atoms: _1203  and  _1204
REMARK  558  A    between atoms: _1207  and  _1208
REMARK  559  A    between atoms: _1208  and  _1209
REMARK  560  A    between atoms: _1211  and  _1212
REMARK  561  A    between atoms: _1212  and  _1213
REMARK  562  A    between atoms: _1215  and  _1216
REMARK  563  A    between atoms: _1216  and  _1217
REMARK  564  A    between atoms: _1216  and  _1219
REMARK  565  A    between atoms: _1221  and  _1222
REMARK  566  A    between atoms: _1222  and  _1223
REMARK  567  A    between atoms: _1222  and  _1225
REMARK  568  A    between atoms: _1225  and  _1226
REMARK  569  A    between atoms: _1232  and  _1233
REMARK  570  A    between atoms: _1233  and  _1234
REMARK  571  A    between atoms: _1233  and  _1236
REMARK  572  A    between atoms: _1239  and  _1240
REMARK  573  A    between atoms: _1240  and  _1241
REMARK  574  A    between atoms: _1240  and  _1243
REMARK  575  A    between atoms: _1247  and  _1249
REMARK  576  A    between atoms: _1247  and  _1252
REMARK  577  A    between atoms: _1251  and  _1252
REMARK  578  A    between atoms: _1251  and  _1254
REMARK  579  A    between atoms: _1253  and  _1254
REMARK  580  A    between atoms: _1253  and  _1256
REMARK  581  A    between atoms: _1254  and  _1255
REMARK  582  A    between atoms: _1255  and  _1257
REMARK  583  A    between atoms: _1256  and  _1258
REMARK  584  A    between atoms: _1265  and  _1266
REMARK  585  A    between atoms: _1266  and  _1267
REMARK  586  A    between atoms: _1266  and  _1269
REMARK  587  A    between atoms: _1272  and  _1273
REMARK  588  A    between atoms: _1273  and  _1274
REMARK  589  A    between atoms: _1273  and  _1276
REMARK  590  A    between atoms: _1276  and  _1277
REMARK  591  A    between atoms: _1280  and  _1281
REMARK  592  A    between atoms: _1281  and  _1282
REMARK  593  A    between atoms: _1281  and  _1284
REMARK  594  A    between atoms: _1287  and  _1288
REMARK  595  A    between atoms: _1288  and  _1289
REMARK  596  A    between atoms: _1291  and  _1292
REMARK  597  A    between atoms: _1292  and  _1293
REMARK  598  A    between atoms: _1292  and  _1295
REMARK  599  A    between atoms: _1295  and  _1296
REMARK  600  A    between atoms: _1296  and  _1297
REMARK  601  A    between atoms: _1301  and  _1302
REMARK  602  A    between atoms: _1307  and  _1308
REMARK  603  A    between atoms: _1308  and  _1309
REMARK  604  A    between atoms: _1308  and  _1311
REMARK  605  A    between atoms: _1311  and  _1312
REMARK  606  A    between atoms: _1312  and  _1313
REMARK  607  A    between atoms: _1315  and  _1316
REMARK  608  A    between atoms: _1316  and  _1317
REMARK  609  A    between atoms: _1319  and  _1320
REMARK  610  A    between atoms: _1320  and  _1321
REMARK  611  A    between atoms: _1320  and  _1323
REMARK  612  A    between atoms: _1323  and  _1324
REMARK  613  A    between atoms: _1324  and  _1325
REMARK  614  A    between atoms: _1325  and  _1326
REMARK  615  A    between atoms: _1330  and  _1331
REMARK  616  A    between atoms: _1331  and  _1332
REMARK  617  A    between atoms: _1334  and  _1335
REMARK  618  A    between atoms: _1335  and  _1336
REMARK  619  A    between atoms: _1335  and  _1338
REMARK  620  A    between atoms: _1341  and  _1342
REMARK  621  A    between atoms: _1342  and  _1343
REMARK  622  A    between atoms: _1342  and  _1345
REMARK  623  A    between atoms: _1345  and  _1346
REMARK  624  A    between atoms: _1346  and  _1347
REMARK  625  A    between atoms: _1347  and  _1348
REMARK  626  A    between atoms: _1350  and  _1351
REMARK  627  A    between atoms: _1351  and  _1352
REMARK  628  A    between atoms: _1351  and  _1354
REMARK  629  A    between atoms: _1357  and  _1358
REMARK  630  A    between atoms: _1358  and  _1359
REMARK  631  A    between atoms: _1358  and  _1361
REMARK  632  A    between atoms: _1361  and  _1362
REMARK  633  A    between atoms: _1365  and  _1366
REMARK  634  A    between atoms: _1366  and  _1367
REMARK  635  A    between atoms: _1366  and  _1369
REMARK  636  A    between atoms: _1369  and  _1370
REMARK  637  A    between atoms: _1373  and  _1374
REMARK  638  A    between atoms: _1374  and  _1375
REMARK  639  A    between atoms: _1374  and  _1377
REMARK  640  A    between atoms: _1377  and  _1378
REMARK  641  A    between atoms: _1383  and  _1384
REMARK  642  A    between atoms: _1384  and  _1385
REMARK  643  A    between atoms: _1384  and  _1387
REMARK  644  A    between atoms: _1387  and  _1388
REMARK  645  A    between atoms: _1391  and  _1392
REMARK  646  A    between atoms: _1392  and  _1393
REMARK  647  A    between atoms: _1392  and  _1395
REMARK  648  A    between atoms: _1395  and  _1396
REMARK  649  A    between atoms: _1396  and  _1397
REMARK  650  A    between atoms: _1397  and  _1398
REMARK  651  A    between atoms: _1400  and  _1401
REMARK  652  A    between atoms: _1401  and  _1402
REMARK  653  A    between atoms: _1401  and  _1404
REMARK  654  A    between atoms: _1404  and  _1405
REMARK  655  A    between atoms: _1405  and  _1406
REMARK  656  A    between atoms: _1409  and  _1410
REMARK  657  A    between atoms: _1410  and  _1411
REMARK  658  A    between atoms: _1410  and  _1413
REMARK  659  A    between atoms: _1413  and  _1414
REMARK  660  A    between atoms: _1417  and  _1418
REMARK  661  A    between atoms: _1418  and  _1419
REMARK  662  A    between atoms: _1418  and  _1421
REMARK  663  A    between atoms: _1421  and  _1422
REMARK  664  A    between atoms: _1422  and  _1423
REMARK  665  A    between atoms: _1426  and  _1427
REMARK  666  A    between atoms: _1427  and  _1428
REMARK  667  A    between atoms: _1427  and  _1430
REMARK  668  A    between atoms: _1433  and  _1434
REMARK  669  A    between atoms: _1434  and  _1435
REMARK  670  A    between atoms: _1434  and  _1437
REMARK  671  A    between atoms: _1437  and  _1438
REMARK  672  A    between atoms: _1438  and  _1439
REMARK  673  A    between atoms: _1442  and  _1443
REMARK  674  A    between atoms: _1443  and  _1444
REMARK  675  A    between atoms: _1443  and  _1446
REMARK  676  A    between atoms: _1446  and  _1447
REMARK  677  A    between atoms: _1454  and  _1455
REMARK  678  A    between atoms: _1455  and  _1456
REMARK  679  A    between atoms: _1455  and  _1458
REMARK  680  A    between atoms: _1458  and  _1459
REMARK  681  A    between atoms: _1462  and  _1463
REMARK  682  A    between atoms: _1463  and  _1464
REMARK  683  A    between atoms: _1463  and  _1466
REMARK  684  A    between atoms: _1466  and  _1467
REMARK  685  A    between atoms: _1467  and  _1468
REMARK  686  A    between atoms: _1471  and  _1472
REMARK  687  A    between atoms: _1472  and  _1473
REMARK  688  A    between atoms: _1472  and  _1475
REMARK  689  A    between atoms: _1475  and  _1476
REMARK  690  A    between atoms: _1476  and  _1477
REMARK  691  A    between atoms: _1480  and  _1481
REMARK  692  A    between atoms: _1481  and  _1482
REMARK  693  A    between atoms: _1481  and  _1484
REMARK  694  A    between atoms: _1484  and  _1485
REMARK  695  A    between atoms: _1485  and  _1486
REMARK  696  A    between atoms: _1486  and  _1487
REMARK  697  A    between atoms: _1491  and  _1492
REMARK  698  A    between atoms: _1492  and  _1493
REMARK  699  A    between atoms: _1492  and  _1495
REMARK  700  A    between atoms: _1495  and  _1496
REMARK  701  A    between atoms: _1496  and  _1497
REMARK  702  A    between atoms: _1497  and  _1498
REMARK  703  A    between atoms: _1502  and  _1503
REMARK  704  A    between atoms: _1503  and  _1504
REMARK  705  A    between atoms: _1503  and  _1506
REMARK  706  A    between atoms: _1506  and  _1507
REMARK  707  A    between atoms: _1510  and  _1511
REMARK  708  A    between atoms: _1511  and  _1512
REMARK  709  A    between atoms: _1511  and  _1514
REMARK  710  A    between atoms: _1514  and  _1515
REMARK  711  A    between atoms: _1515  and  _1516
REMARK  712  A    between atoms: _1516  and  _1517
REMARK  713  A    between atoms: _1519  and  _1520
REMARK  714  A    between atoms: _1520  and  _1521
REMARK  715  A    between atoms: _1520  and  _1523
REMARK  716  A    between atoms: _1523  and  _1524
REMARK  717  A    between atoms: _1524  and  _1525
REMARK  718  A    between atoms: _1528  and  _1529
REMARK  719  A    between atoms: _1529  and  _1530
REMARK  720  A    between atoms: _1529  and  _1532
REMARK  721  A    between atoms: _1532  and  _1533
REMARK  722  A    between atoms: _1536  and  _1537
REMARK  723  A    between atoms: _1537  and  _1538
REMARK  724  A    between atoms: _1537  and  _1540
REMARK  725  A    between atoms: _1543  and  _1544
REMARK  726  A    between atoms: _1544  and  _1545
REMARK  727  A    between atoms: _1544  and  _1547
REMARK  728  A    between atoms: _1547  and  _1548
REMARK  729  A    between atoms: _1548  and  _1549
REMARK  730  A    between atoms: _1549  and  _1550
REMARK  731  A    between atoms: _1552  and  _1553
REMARK  732  A    between atoms: _1553  and  _1554
REMARK  733  A    between atoms: _1553  and  _1556
REMARK  734  A    between atoms: _1556  and  _1557
REMARK  735  A    between atoms: _1557  and  _1558
REMARK  736  A    between atoms: _1558  and  _1559
REMARK  737  A    between atoms: _1561  and  _1562
REMARK  738  A    between atoms: _1562  and  _1563
REMARK  739  A    between atoms: _1562  and  _1565
REMARK  740  A    between atoms: _1565  and  _1566
REMARK  741  A    between atoms: _1571  and  _1572
REMARK  742  A    between atoms: _1572  and  _1573
REMARK  743  A    between atoms: _1572  and  _1575
REMARK  744  A    between atoms: _1577  and  _1578
REMARK  745  A    between atoms: _1578  and  _1579
REMARK  746  A    between atoms: _1578  and  _1581
REMARK  747  A    between atoms: _1581  and  _1582
REMARK  748  A    between atoms: _1582  and  _1583
REMARK  749  A    between atoms: _1586  and  _1587
REMARK  750  A    between atoms: _1587  and  _1588
REMARK  751  A    between atoms: _1587  and  _1590
REMARK  752  A    between atoms: _1590  and  _1591
REMARK  753  A    between atoms: _1597  and  _1598
REMARK  754  A    between atoms: _1598  and  _1599
REMARK  755  A    between atoms: _1598  and  _1601
REMARK  756  A    between atoms: _1601  and  _1602
REMARK  757  A    between atoms: _1605  and  _1606
REMARK  758  A    between atoms: _1606  and  _1607
REMARK  759  A    between atoms: _1609  and  _1610
REMARK  760  A    between atoms: _1610  and  _1611
REMARK  761  A    between atoms: _1610  and  _1613
REMARK  762  A    between atoms: _1613  and  _1614
REMARK  763  A    between atoms: _1622  and  _1623
REMARK  764  A    between atoms: _1628  and  _1629
REMARK  765  A    between atoms: _1629  and  _1630
REMARK  766  A    between atoms: _1629  and  _1632
REMARK  767  A    between atoms: _1632  and  _1633
REMARK  768  A    between atoms: _1636  and  _1637
REMARK  769  A    between atoms: _1637  and  _1638
REMARK  770  A    between atoms: _1637  and  _1640
REMARK  771  A    between atoms: _1643  and  _1644
REMARK  772  A    between atoms: _1644  and  _1645
REMARK  773  A    between atoms: _1644  and  _1647
REMARK  774  A    between atoms: _1647  and  _1648
REMARK  775  A    between atoms: _1651  and  _1652
REMARK  776  A    between atoms: _1652  and  _1653
REMARK  777  A    between atoms: _1652  and  _1655
REMARK  778  A    between atoms: _1655  and  _1656
REMARK  779  A    between atoms: _1662  and  _1663
REMARK  780  A    between atoms: _1663  and  _1664
REMARK  781  A    between atoms: _1663  and  _1666
REMARK  782  A    between atoms: _1669  and  _1670
REMARK  783  A    between atoms: _1670  and  _1671
REMARK  784  A    between atoms: _1670  and  _1673
REMARK  785  A    between atoms: _1673  and  _1674
REMARK  786  A    between atoms: _1674  and  _1675
REMARK                            x       y       z     vdW  Elec       q    Type
REMARK                         _______ _______ _______ _____ _____    ______ ____
ROOT
ATOM      1  C   UNL     1       4.361  10.270  26.667  0.00  0.00    +0.279 C 
ATOM      2  O   UNL     1       3.654   9.896  25.786  0.00  0.00    -0.279 OA
ENDROOT
TORSDOF 0
REMARK  Name = /Users/mlugowska/PhD/ML_residence_time_prediction/protein_files/5J64_protein.pdb
REMARK  786 active torsions:
REMARK  status: ('A' for Active; 'I' for Inactive)
REMARK    1  A    between atoms: _2  and  _3
REMARK    2  A    between atoms: _2  and  _5
REMARK    3  A    between atoms: _5  and  _6
REMARK    4  A    between atoms: _6  and  _7
REMARK    5  A    between atoms: _10  and  _11
REMARK    6  A    between atoms: _11  and  _12
REMARK    7  A    between atoms: _11  and  _14
REMARK    8  A    between atoms: _17  and  _18
REMARK    9  A    between atoms: _18  and  _19
REMARK   10  A    between atoms: _18  and  _21
REMARK   11  A    between atoms: _21  and  _22
REMARK   12  A    between atoms: _22  and  _23
REMARK   13  A    between atoms: _26  and  _27
REMARK   14  A    between atoms: _27  and  _28
REMARK   15  A    between atoms: _27  and  _30
REMARK   16  A    between atoms: _33  and  _34
REMARK   17  A    between atoms: _34  and  _35
REMARK   18  A    between atoms: _34  and  _37
REMARK   19  A    between atoms: _37  and  _38
REMARK   20  A    between atoms: _44  and  _45
REMARK   21  A    between atoms: _45  and  _46
REMARK   22  A    between atoms: _49  and  _50
REMARK   23  A    between atoms: _50  and  _51
REMARK   24  A    between atoms: _50  and  _53
REMARK   25  A    between atoms: _53  and  _54
REMARK   26  A    between atoms: _60  and  _61
REMARK   27  A    between atoms: _61  and  _62
REMARK   28  A    between atoms: _61  and  _64
REMARK   29  A    between atoms: _64  and  _65
REMARK   30  A    between atoms: _65  and  _66
REMARK   31  A    between atoms: _69  and  _70
REMARK   32  A    between atoms: _70  and  _71
REMARK   33  A    between atoms: _74  and  _75
REMARK   34  A    between atoms: _75  and  _76
REMARK   35  A    between atoms: _75  and  _78
REMARK   36  A    between atoms: _78  and  _79
REMARK   37  A    between atoms: _79  and  _80
REMARK   38  A    between atoms: _83  and  _84
REMARK   39  A    between atoms: _84  and  _85
REMARK   40  A    between atoms: _84  and  _87
REMARK   41  A    between atoms: _87  and  _88
REMARK   42  A    between atoms: _91  and  _92
REMARK   43  A    between atoms: _92  and  _93
REMARK   44  A    between atoms: _96  and  _97
REMARK   45  A    between atoms: _97  and  _98
REMARK   46  A    between atoms: _97  and  _100
REMARK   47  A    between atoms: _100  and  _101
REMARK   48  A    between atoms: _101  and  _102
REMARK   49  A    between atoms: _105  and  _106
REMARK   50  A    between atoms: _106  and  _107
REMARK   51  A    between atoms: _106  and  _109
REMARK   52  A    between atoms: _109  and  _110
REMARK   53  A    between atoms: _113  and  _114
REMARK   54  A    between atoms: _114  and  _115
REMARK   55  A    between atoms: _114  and  _117
REMARK   56  A    between atoms: _117  and  _118
REMARK   57  A    between atoms: _118  and  _119
REMARK   58  A    between atoms: _121  and  _122
REMARK   59  A    between atoms: _122  and  _123
REMARK   60  A    between atoms: _122  and  _125
REMARK   61  A    between atoms: _127  and  _128
REMARK   62  A    between atoms: _128  and  _129
REMARK   63  A    between atoms: _128  and  _131
REMARK   64  A    between atoms: _131  and  _132
REMARK   65  A    between atoms: _135  and  _136
REMARK   66  A    between atoms: _136  and  _137
REMARK   67  A    between atoms: _136  and  _139
REMARK   68  A    between atoms: _139  and  _140
REMARK   69  A    between atoms: _143  and  _144
REMARK   70  A    between atoms: _144  and  _145
REMARK   71  A    between atoms: _144  and  _147
REMARK   72  A    between atoms: _147  and  _148
REMARK   73  A    between atoms: _151  and  _152
REMARK   74  A    between atoms: _152  and  _153
REMARK   75  A    between atoms: _152  and  _155
REMARK   76  A    between atoms: _155  and  _156
REMARK   77  A    between atoms: _159  and  _160
REMARK   78  A    between atoms: _160  and  _161
REMARK   79  A    between atoms: _160  and  _163
REMARK   80  A    between atoms: _166  and  _167
REMARK   81  A    between atoms: _167  and  _170
REMARK   82  A    between atoms: _170  and  _171
REMARK   83  A    between atoms: _181  and  _183
REMARK   84  A    between atoms: _183  and  _184
REMARK   85  A    between atoms: _189  and  _194
REMARK   86  A    between atoms: _192  and  _195
REMARK   87  A    between atoms: _193  and  _194
REMARK   88  A    between atoms: _195  and  _196
REMARK   89  A    between atoms: _201  and  _202
REMARK   90  A    between atoms: _202  and  _203
REMARK   91  A    between atoms: _202  and  _205
REMARK   92  A    between atoms: _207  and  _208
REMARK   93  A    between atoms: _208  and  _209
REMARK   94  A    between atoms: _208  and  _211
REMARK   95  A    between atoms: _211  and  _212
REMARK   96  A    between atoms: _215  and  _216
REMARK   97  A    between atoms: _216  and  _217
REMARK   98  A    between atoms: _216  and  _219
REMARK   99  A    between atoms: _219  and  _220
REMARK  100  A    between atoms: _220  and  _221
REMARK  101  A    between atoms: _221  and  _222
REMARK  102  A    between atoms: _224  and  _225
REMARK  103  A    between atoms: _225  and  _226
REMARK  104  A    between atoms: _225  and  _228
REMARK  105  A    between atoms: _228  and  _229
REMARK  106  A    between atoms: _229  and  _230
REMARK  107  A    between atoms: _233  and  _234
REMARK  108  A    between atoms: _234  and  _235
REMARK  109  A    between atoms: _234  and  _237
REMARK  110  A    between atoms: _237  and  _238
REMARK  111  A    between atoms: _241  and  _242
REMARK  112  A    between atoms: _242  and  _243
REMARK  113  A    between atoms: _242  and  _245
REMARK  114  A    between atoms: _245  and  _246
REMARK  115  A    between atoms: _252  and  _253
REMARK  116  A    between atoms: _253  and  _254
REMARK  117  A    between atoms: _253  and  _256
REMARK  118  A    between atoms: _256  and  _257
REMARK  119  A    between atoms: _260  and  _261
REMARK  120  A    between atoms: _261  and  _262
REMARK  121  A    between atoms: _261  and  _264
REMARK  122  A    between atoms: _264  and  _265
REMARK  123  A    between atoms: _265  and  _266
REMARK  124  A    between atoms: _266  and  _267
REMARK  125  A    between atoms: _271  and  _272
REMARK  126  A    between atoms: _272  and  _273
REMARK  127  A    between atoms: _272  and  _275
REMARK  128  A    between atoms: _275  and  _276
REMARK  129  A    between atoms: _276  and  _277
REMARK  130  A    between atoms: _280  and  _281
REMARK  131  A    between atoms: _281  and  _282
REMARK  132  A    between atoms: _281  and  _284
REMARK  133  A    between atoms: _284  and  _285
REMARK  134  A    between atoms: _288  and  _289
REMARK  135  A    between atoms: _289  and  _292
REMARK  136  A    between atoms: _292  and  _293
REMARK  137  A    between atoms: _309  and  _310
REMARK  138  A    between atoms: _309  and  _312
REMARK  139  A    between atoms: _312  and  _313
REMARK  140  A    between atoms: _316  and  _317
REMARK  141  A    between atoms: _317  and  _318
REMARK  142  A    between atoms: _317  and  _320
REMARK  143  A    between atoms: _322  and  _323
REMARK  144  A    between atoms: _323  and  _324
REMARK  145  A    between atoms: _323  and  _326
REMARK  146  A    between atoms: _328  and  _329
REMARK  147  A    between atoms: _329  and  _330
REMARK  148  A    between atoms: _329  and  _332
REMARK  149  A    between atoms: _332  and  _333
REMARK  150  A    between atoms: _336  and  _337
REMARK  151  A    between atoms: _337  and  _338
REMARK  152  A    between atoms: _341  and  _342
REMARK  153  A    between atoms: _342  and  _343
REMARK  154  A    between atoms: _342  and  _345
REMARK  155  A    between atoms: _345  and  _346
REMARK  156  A    between atoms: _349  and  _350
REMARK  157  A    between atoms: _350  and  _351
REMARK  158  A    between atoms: _350  and  _353
REMARK  159  A    between atoms: _353  and  _354
REMARK  160  A    between atoms: _357  and  _358
REMARK  161  A    between atoms: _358  and  _359
REMARK  162  A    between atoms: _358  and  _361
REMARK  163  A    between atoms: _361  and  _362
REMARK  164  A    between atoms: _362  and  _363
REMARK  165  A    between atoms: _363  and  _364
REMARK  166  A    between atoms: _366  and  _367
REMARK  167  A    between atoms: _367  and  _368
REMARK  168  A    between atoms: _367  and  _370
REMARK  169  A    between atoms: _370  and  _371
REMARK  170  A    between atoms: _374  and  _375
REMARK  171  A    between atoms: _375  and  _376
REMARK  172  A    between atoms: _375  and  _378
REMARK  173  A    between atoms: _378  and  _379
REMARK  174  A    between atoms: _379  and  _380
REMARK  175  A    between atoms: _380  and  _381
REMARK  176  A    between atoms: _385  and  _386
REMARK  177  A    between atoms: _386  and  _387
REMARK  178  A    between atoms: _386  and  _389
REMARK  179  A    between atoms: _389  and  _390
REMARK  180  A    between atoms: _397  and  _398
REMARK  181  A    between atoms: _398  and  _399
REMARK  182  A    between atoms: _398  and  _401
REMARK  183  A    between atoms: _401  and  _402
REMARK  184  A    between atoms: _402  and  _403
REMARK  185  A    between atoms: _406  and  _407
REMARK  186  A    between atoms: _407  and  _408
REMARK  187  A    between atoms: _407  and  _410
REMARK  188  A    between atoms: _412  and  _413
REMARK  189  A    between atoms: _413  and  _414
REMARK  190  A    between atoms: _413  and  _416
REMARK  191  A    between atoms: _416  and  _417
REMARK  192  A    between atoms: _420  and  _421
REMARK  193  A    between atoms: _421  and  _422
REMARK  194  A    between atoms: _421  and  _424
REMARK  195  A    between atoms: _427  and  _428
REMARK  196  A    between atoms: _428  and  _429
REMARK  197  A    between atoms: _428  and  _431
REMARK  198  A    between atoms: _431  and  _432
REMARK  199  A    between atoms: _436  and  _437
REMARK  200  A    between atoms: _442  and  _443
REMARK  201  A    between atoms: _443  and  _444
REMARK  202  A    between atoms: _443  and  _446
REMARK  203  A    between atoms: _448  and  _449
REMARK  204  A    between atoms: _449  and  _450
REMARK  205  A    between atoms: _449  and  _452
REMARK  206  A    between atoms: _452  and  _453
REMARK  207  A    between atoms: _453  and  _454
REMARK  208  A    between atoms: _454  and  _455
REMARK  209  A    between atoms: _457  and  _458
REMARK  210  A    between atoms: _458  and  _459
REMARK  211  A    between atoms: _458  and  _461
REMARK  212  A    between atoms: _461  and  _462
REMARK  213  A    between atoms: _465  and  _466
REMARK  214  A    between atoms: _466  and  _467
REMARK  215  A    between atoms: _466  and  _469
REMARK  216  A    between atoms: _469  and  _470
REMARK  217  A    between atoms: _473  and  _474
REMARK  218  A    between atoms: _474  and  _475
REMARK  219  A    between atoms: _474  and  _477
REMARK  220  A    between atoms: _479  and  _480
REMARK  221  A    between atoms: _480  and  _481
REMARK  222  A    between atoms: _483  and  _484
REMARK  223  A    between atoms: _484  and  _485
REMARK  224  A    between atoms: _484  and  _487
REMARK  225  A    between atoms: _487  and  _488
REMARK  226  A    between atoms: _488  and  _489
REMARK  227  A    between atoms: _489  and  _490
REMARK  228  A    between atoms: _492  and  _493
REMARK  229  A    between atoms: _493  and  _494
REMARK  230  A    between atoms: _493  and  _496
REMARK  231  A    between atoms: _496  and  _497
REMARK  232  A    between atoms: _497  and  _498
REMARK  233  A    between atoms: _501  and  _502
REMARK  234  A    between atoms: _502  and  _503
REMARK  235  A    between atoms: _502  and  _505
REMARK  236  A    between atoms: _505  and  _506
REMARK  237  A    between atoms: _509  and  _510
REMARK  238  A    between atoms: _510  and  _511
REMARK  239  A    between atoms: _510  and  _513
REMARK  240  A    between atoms: _513  and  _514
REMARK  241  A    between atoms: _519  and  _520
REMARK  242  A    between atoms: _520  and  _521
REMARK  243  A    between atoms: _520  and  _523
REMARK  244  A    between atoms: _523  and  _524
REMARK  245  A    between atoms: _527  and  _528
REMARK  246  A    between atoms: _528  and  _529
REMARK  247  A    between atoms: _528  and  _531
REMARK  248  A    between atoms: _531  and  _532
REMARK  249  A    between atoms: _535  and  _536
REMARK  250  A    between atoms: _536  and  _537
REMARK  251  A    between atoms: _536  and  _539
REMARK  252  A    between atoms: _539  and  _540
REMARK  253  A    between atoms: _543  and  _544
REMARK  254  A    between atoms: _544  and  _545
REMARK  255  A    between atoms: _544  and  _547
REMARK  256  A    between atoms: _547  and  _548
REMARK  257  A    between atoms: _552  and  _553
REMARK  258  A    between atoms: _558  and  _559
REMARK  259  A    between atoms: _559  and  _560
REMARK  260  A    between atoms: _559  and  _562
REMARK  261  A    between atoms: _562  and  _563
REMARK  262  A    between atoms: _566  and  _567
REMARK  263  A    between atoms: _567  and  _568
REMARK  264  A    between atoms: _567  and  _570
REMARK  265  A    between atoms: _570  and  _571
REMARK  266  A    between atoms: _571  and  _572
REMARK  267  A    between atoms: _572  and  _573
REMARK  268  A    between atoms: _575  and  _576
REMARK  269  A    between atoms: _576  and  _577
REMARK  270  A    between atoms: _576  and  _579
REMARK  271  A    between atoms: _579  and  _580
REMARK  272  A    between atoms: _580  and  _581
REMARK  273  A    between atoms: _584  and  _585
REMARK  274  A    between atoms: _585  and  _586
REMARK  275  A    between atoms: _585  and  _588
REMARK  276  A    between atoms: _588  and  _589
REMARK  277  A    between atoms: _592  and  _593
REMARK  278  A    between atoms: _593  and  _594
REMARK  279  A    between atoms: _593  and  _596
REMARK  280  A    between atoms: _596  and  _597
REMARK  281  A    between atoms: _597  and  _598
REMARK  282  A    between atoms: _598  and  _599
REMARK  283  A    between atoms: _603  and  _604
REMARK  284  A    between atoms: _604  and  _605
REMARK  285  A    between atoms: _604  and  _607
REMARK  286  A    between atoms: _610  and  _611
REMARK  287  A    between atoms: _611  and  _612
REMARK  288  A    between atoms: _611  and  _614
REMARK  289  A    between atoms: _614  and  _615
REMARK  290  A    between atoms: _618  and  _619
REMARK  291  A    between atoms: _619  and  _620
REMARK  292  A    between atoms: _619  and  _622
REMARK  293  A    between atoms: _625  and  _626
REMARK  294  A    between atoms: _626  and  _627
REMARK  295  A    between atoms: _626  and  _629
REMARK  296  A    between atoms: _629  and  _630
REMARK  297  A    between atoms: _633  and  _634
REMARK  298  A    between atoms: _634  and  _635
REMARK  299  A    between atoms: _634  and  _637
REMARK  300  A    between atoms: _640  and  _641
REMARK  301  A    between atoms: _641  and  _642
REMARK  302  A    between atoms: _641  and  _644
REMARK  303  A    between atoms: _644  and  _645
REMARK  304  A    between atoms: _648  and  _649
REMARK  305  A    between atoms: _649  and  _650
REMARK  306  A    between atoms: _649  and  _652
REMARK  307  A    between atoms: _655  and  _656
REMARK  308  A    between atoms: _656  and  _657
REMARK  309  A    between atoms: _659  and  _660
REMARK  310  A    between atoms: _660  and  _661
REMARK  311  A    between atoms: _660  and  _663
REMARK  312  A    between atoms: _663  and  _664
REMARK  313  A    between atoms: _667  and  _668
REMARK  314  A    between atoms: _668  and  _669
REMARK  315  A    between atoms: _671  and  _672
REMARK  316  A    between atoms: _672  and  _673
REMARK  317  A    between atoms: _672  and  _675
REMARK  318  A    between atoms: _675  and  _676
REMARK  319  A    between atoms: _676  and  _677
REMARK  320  A    between atoms: _679  and  _680
REMARK  321  A    between atoms: _680  and  _681
REMARK  322  A    between atoms: _680  and  _683
REMARK  323  A    between atoms: _686  and  _687
REMARK  324  A    between atoms: _687  and  _688
REMARK  325  A    between atoms: _687  and  _690
REMARK  326  A    between atoms: _690  and  _691
REMARK  327  A    between atoms: _691  and  _692
REMARK  328  A    between atoms: _692  and  _693
REMARK  329  A    between atoms: _695  and  _696
REMARK  330  A    between atoms: _696  and  _697
REMARK  331  A    between atoms: _700  and  _701
REMARK  332  A    between atoms: _701  and  _702
REMARK  333  A    between atoms: _701  and  _704
REMARK  334  A    between atoms: _704  and  _705
REMARK  335  A    between atoms: _708  and  _709
REMARK  336  A    between atoms: _709  and  _710
REMARK  337  A    between atoms: _709  and  _712
REMARK  338  A    between atoms: _712  and  _713
REMARK  339  A    between atoms: _716  and  _717
REMARK  340  A    between atoms: _717  and  _720
REMARK  341  A    between atoms: _720  and  _721
REMARK  342  A    between atoms: _733  and  _734
REMARK  343  A    between atoms: _733  and  _735
REMARK  344  A    between atoms: _741  and  _744
REMARK  345  A    between atoms: _744  and  _745
REMARK  346  A    between atoms: _758  and  _759
REMARK  347  A    between atoms: _758  and  _761
REMARK  348  A    between atoms: _759  and  _760
REMARK  349  A    between atoms: _765  and  _766
REMARK  350  A    between atoms: _768  and  _769
REMARK  351  A    between atoms: _769  and  _770
REMARK  352  A    between atoms: _769  and  _772
REMARK  353  A    between atoms: _775  and  _776
REMARK  354  A    between atoms: _776  and  _777
REMARK  355  A    between atoms: _776  and  _779
REMARK  356  A    between atoms: _779  and  _780
REMARK  357  A    between atoms: _783  and  _784
REMARK  358  A    between atoms: _784  and  _785
REMARK  359  A    between atoms: _788  and  _789
REMARK  360  A    between atoms: _789  and  _790
REMARK  361  A    between atoms: _789  and  _792
REMARK  362  A    between atoms: _792  and  _793
REMARK  363  A    between atoms: _793  and  _794
REMARK  364  A    between atoms: _794  and  _795
REMARK  365  A    between atoms: _797  and  _798
REMARK  366  A    between atoms: _798  and  _799
REMARK  367  A    between atoms: _798  and  _801
REMARK  368  A    between atoms: _803  and  _804
REMARK  369  A    between atoms: _804  and  _805
REMARK  370  A    between atoms: _807  and  _808
REMARK  371  A    between atoms: _808  and  _809
REMARK  372  A    between atoms: _808  and  _811
REMARK  373  A    between atoms: _814  and  _815
REMARK  374  A    between atoms: _815  and  _816
REMARK  375  A    between atoms: _815  and  _818
REMARK  376  A    between atoms: _818  and  _819
REMARK  377  A    between atoms: _819  and  _820
REMARK  378  A    between atoms: _820  and  _821
REMARK  379  A    between atoms: _823  and  _824
REMARK  380  A    between atoms: _824  and  _825
REMARK  381  A    between atoms: _828  and  _829
REMARK  382  A    between atoms: _829  and  _830
REMARK  383  A    between atoms: _829  and  _832
REMARK  384  A    between atoms: _832  and  _833
REMARK  385  A    between atoms: _839  and  _840
REMARK  386  A    between atoms: _840  and  _841
REMARK  387  A    between atoms: _840  and  _843
REMARK  388  A    between atoms: _843  and  _844
REMARK  389  A    between atoms: _844  and  _845
REMARK  390  A    between atoms: _847  and  _848
REMARK  391  A    between atoms: _848  and  _849
REMARK  392  A    between atoms: _848  and  _851
REMARK  393  A    between atoms: _851  and  _852
REMARK  394  A    between atoms: _852  and  _853
REMARK  395  A    between atoms: _856  and  _857
REMARK  396  A    between atoms: _857  and  _858
REMARK  397  A    between atoms: _861  and  _862
REMARK  398  A    between atoms: _862  and  _863
REMARK  399  A    between atoms: _862  and  _865
REMARK  400  A    between atoms: _865  and  _866
REMARK  401  A    between atoms: _869  and  _870
REMARK  402  A    between atoms: _870  and  _871
REMARK  403  A    between atoms: _870  and  _873
REMARK  404  A    between atoms: _873  and  _874
REMARK  405  A    between atoms: _874  and  _875
REMARK  406  A    between atoms: _878  and  _879
REMARK  407  A    between atoms: _879  and  _880
REMARK  408  A    between atoms: _883  and  _884
REMARK  409  A    between atoms: _884  and  _885
REMARK  410  A    between atoms: _887  and  _888
REMARK  411  A    between atoms: _888  and  _889
REMARK  412  A    between atoms: _892  and  _893
REMARK  413  A    between atoms: _893  and  _894
REMARK  414  A    between atoms: _893  and  _896
REMARK  415  A    between atoms: _896  and  _897
REMARK  416  A    between atoms: _900  and  _901
REMARK  417  A    between atoms: _901  and  _902
REMARK  418  A    between atoms: _901  and  _904
REMARK  419  A    between atoms: _904  and  _905
REMARK  420  A    between atoms: _908  and  _909
REMARK  421  A    between atoms: _909  and  _910
REMARK  422  A    between atoms: _909  and  _912
REMARK  423  A    between atoms: _914  and  _915
REMARK  424  A    between atoms: _915  and  _916
REMARK  425  A    between atoms: _915  and  _918
REMARK  426  A    between atoms: _918  and  _919
REMARK  427  A    between atoms: _919  and  _920
REMARK  428  A    between atoms: _922  and  _923
REMARK  429  A    between atoms: _923  and  _924
REMARK  430  A    between atoms: _923  and  _926
REMARK  431  A    between atoms: _926  and  _927
REMARK  432  A    between atoms: _930  and  _931
REMARK  433  A    between atoms: _931  and  _932
REMARK  434  A    between atoms: _934  and  _935
REMARK  435  A    between atoms: _935  and  _936
REMARK  436  A    between atoms: _935  and  _938
REMARK  437  A    between atoms: _938  and  _939
REMARK  438  A    between atoms: _939  and  _940
REMARK  439  A    between atoms: _943  and  _944
REMARK  440  A    between atoms: _944  and  _945
REMARK  441  A    between atoms: _944  and  _947
REMARK  442  A    between atoms: _947  and  _948
REMARK  443  A    between atoms: _954  and  _955
REMARK  444  A    between atoms: _955  and  _956
REMARK  445  A    between atoms: _958  and  _959
REMARK  446  A    between atoms: _959  and  _960
REMARK  447  A    between atoms: _959  and  _962
REMARK  448  A    between atoms: _965  and  _966
REMARK  449  A    between atoms: _966  and  _967
REMARK  450  A    between atoms: _969  and  _970
REMARK  451  A    between atoms: _970  and  _971
REMARK  452  A    between atoms: _970  and  _973
REMARK  453  A    between atoms: _973  and  _974
REMARK  454  A    between atoms: _980  and  _981
REMARK  455  A    between atoms: _981  and  _982
REMARK  456  A    between atoms: _981  and  _984
REMARK  457  A    between atoms: _984  and  _985
REMARK  458  A    between atoms: _992  and  _993
REMARK  459  A    between atoms: _993  and  _994
REMARK  460  A    between atoms: _993  and  _996
REMARK  461  A    between atoms: _998  and  _999
REMARK  462  A    between atoms: _999  and  _1000
REMARK  463  A    between atoms: _1003  and  _1004
REMARK  464  A    between atoms: _1004  and  _1005
REMARK  465  A    between atoms: _1004  and  _1007
REMARK  466  A    between atoms: _1007  and  _1008
REMARK  467  A    between atoms: _1015  and  _1016
REMARK  468  A    between atoms: _1016  and  _1017
REMARK  469  A    between atoms: _1016  and  _1019
REMARK  470  A    between atoms: _1019  and  _1020
REMARK  471  A    between atoms: _1023  and  _1024
REMARK  472  A    between atoms: _1024  and  _1025
REMARK  473  A    between atoms: _1024  and  _1027
REMARK  474  A    between atoms: _1030  and  _1031
REMARK  475  A    between atoms: _1031  and  _1032
REMARK  476  A    between atoms: _1035  and  _1036
REMARK  477  A    between atoms: _1036  and  _1037
REMARK  478  A    between atoms: _1036  and  _1039
REMARK  479  A    between atoms: _1039  and  _1040
REMARK  480  A    between atoms: _1040  and  _1041
REMARK  481  A    between atoms: _1044  and  _1045
REMARK  482  A    between atoms: _1045  and  _1046
REMARK  483  A    between atoms: _1045  and  _1048
REMARK  484  A    between atoms: _1048  and  _1049
REMARK  485  A    between atoms: _1049  and  _1050
REMARK  486  A    between atoms: _1050  and  _1051
REMARK  487  A    between atoms: _1053  and  _1054
REMARK  488  A    between atoms: _1054  and  _1055
REMARK  489  A    between atoms: _1054  and  _1057
REMARK  490  A    between atoms: _1060  and  _1061
REMARK  491  A    between atoms: _1061  and  _1062
REMARK  492  A    between atoms: _1061  and  _1064
REMARK  493  A    between atoms: _1067  and  _1068
REMARK  494  A    between atoms: _1068  and  _1069
REMARK  495  A    between atoms: _1068  and  _1071
REMARK  496  A    between atoms: _1074  and  _1075
REMARK  497  A    between atoms: _1075  and  _1076
REMARK  498  A    between atoms: _1075  and  _1078
REMARK  499  A    between atoms: _1078  and  _1079
REMARK  500  A    between atoms: _1082  and  _1083
REMARK  501  A    between atoms: _1083  and  _1084
REMARK  502  A    between atoms: _1083  and  _1086
REMARK  503  A    between atoms: _1089  and  _1090
REMARK  504  A    between atoms: _1090  and  _1091
REMARK  505  A    between atoms: _1090  and  _1093
REMARK  506  A    between atoms: _1093  and  _1094
REMARK  507  A    between atoms: _1094  and  _1095
REMARK  508  A    between atoms: _1095  and  _1096
REMARK  509  A    between atoms: _1098  and  _1099
REMARK  510  A    between atoms: _1099  and  _1100
REMARK  511  A    between atoms: _1099  and  _1102
REMARK  512  A    between atoms: _1102  and  _1103
REMARK  513  A    between atoms: _1108  and  _1109
REMARK  514  A    between atoms: _1109  and  _1110
REMARK  515  A    between atoms: _1109  and  _1112
REMARK  516  A    between atoms: _1112  and  _1113
REMARK  517  A    between atoms: _1116  and  _1117
REMARK  518  A    between atoms: _1117  and  _1118
REMARK  519  A    between atoms: _1117  and  _1120
REMARK  520  A    between atoms: _1120  and  _1121
REMARK  521  A    between atoms: _1124  and  _1125
REMARK  522  A    between atoms: _1125  and  _1126
REMARK  523  A    between atoms: _1125  and  _1128
REMARK  524  A    between atoms: _1128  and  _1129
REMARK  525  A    between atoms: _1132  and  _1133
REMARK  526  A    between atoms: _1133  and  _1134
REMARK  527  A    between atoms: _1133  and  _1136
REMARK  528  A    between atoms: _1136  and  _1137
REMARK  529  A    between atoms: _1137  and  _1138
REMARK  530  A    between atoms: _1141  and  _1142
REMARK  531  A    between atoms: _1142  and  _1143
REMARK  532  A    between atoms: _1142  and  _1145
REMARK  533  A    between atoms: _1145  and  _1146
REMARK  534  A    between atoms: _1146  and  _1147
REMARK  535  A    between atoms: _1150  and  _1151
REMARK  536  A    between atoms: _1151  and  _1152
REMARK  537  A    between atoms: _1151  and  _1154
REMARK  538  A    between atoms: _1154  and  _1155
REMARK  539  A    between atoms: _1162  and  _1163
REMARK  540  A    between atoms: _1163  and  _1164
REMARK  541  A    between atoms: _1167  and  _1168
REMARK  542  A    between atoms: _1168  and  _1169
REMARK  543  A    between atoms: _1168  and  _1171
REMARK  544  A    between atoms: _1171  and  _1172
REMARK  545  A    between atoms: _1181  and  _1182
REMARK  546  A    between atoms: _1182  and  _1183
REMARK  547  A    between atoms: _1182  and  _1185
REMARK  548  A    between atoms: _1185  and  _1186
REMARK  549  A    between atoms: _1186  and  _1187
REMARK  550  A    between atoms: _1190  and  _1191
REMARK  551  A    between atoms: _1191  and  _1192
REMARK  552  A    between atoms: _1191  and  _1194
REMARK  553  A    between atoms: _1196  and  _1197
REMARK  554  A    between atoms: _1197  and  _1198
REMARK  555  A    between atoms: _1197  and  _1200
REMARK  556  A    between atoms: _1202  and  _1203
REMARK  557  A    between atoms: _1203  and  _1204
REMARK  558  A    between atoms: _1207  and  _1208
REMARK  559  A    between atoms: _1208  and  _1209
REMARK  560  A    between atoms: _1211  and  _1212
REMARK  561  A    between atoms: _1212  and  _1213
REMARK  562  A    between atoms: _1215  and  _1216
REMARK  563  A    between atoms: _1216  and  _1217
REMARK  564  A    between atoms: _1216  and  _1219
REMARK  565  A    between atoms: _1221  and  _1222
REMARK  566  A    between atoms: _1222  and  _1223
REMARK  567  A    between atoms: _1222  and  _1225
REMARK  568  A    between atoms: _1225  and  _1226
REMARK  569  A    between atoms: _1232  and  _1233
REMARK  570  A    between atoms: _1233  and  _1234
REMARK  571  A    between atoms: _1233  and  _1236
REMARK  572  A    between atoms: _1239  and  _1240
REMARK  573  A    between atoms: _1240  and  _1241
REMARK  574  A    between atoms: _1240  and  _1243
REMARK  575  A    between atoms: _1247  and  _1249
REMARK  576  A    between atoms: _1247  and  _1252
REMARK  577  A    between atoms: _1251  and  _1252
REMARK  578  A    between atoms: _1251  and  _1254
REMARK  579  A    between atoms: _1253  and  _1254
REMARK  580  A    between atoms: _1253  and  _1256
REMARK  581  A    between atoms: _1254  and  _1255
REMARK  582  A    between atoms: _1255  and  _1257
REMARK  583  A    between atoms: _1256  and  _1258
REMARK  584  A    between atoms: _1265  and  _1266
REMARK  585  A    between atoms: _1266  and  _1267
REMARK  586  A    between atoms: _1266  and  _1269
REMARK  587  A    between atoms: _1272  and  _1273
REMARK  588  A    between atoms: _1273  and  _1274
REMARK  589  A    between atoms: _1273  and  _1276
REMARK  590  A    between atoms: _1276  and  _1277
REMARK  591  A    between atoms: _1280  and  _1281
REMARK  592  A    between atoms: _1281  and  _1282
REMARK  593  A    between atoms: _1281  and  _1284
REMARK  594  A    between atoms: _1287  and  _1288
REMARK  595  A    between atoms: _1288  and  _1289
REMARK  596  A    between atoms: _1291  and  _1292
REMARK  597  A    between atoms: _1292  and  _1293
REMARK  598  A    between atoms: _1292  and  _1295
REMARK  599  A    between atoms: _1295  and  _1296
REMARK  600  A    between atoms: _1296  and  _1297
REMARK  601  A    between atoms: _1301  and  _1302
REMARK  602  A    between atoms: _1307  and  _1308
REMARK  603  A    between atoms: _1308  and  _1309
REMARK  604  A    between atoms: _1308  and  _1311
REMARK  605  A    between atoms: _1311  and  _1312
REMARK  606  A    between atoms: _1312  and  _1313
REMARK  607  A    between atoms: _1315  and  _1316
REMARK  608  A    between atoms: _1316  and  _1317
REMARK  609  A    between atoms: _1319  and  _1320
REMARK  610  A    between atoms: _1320  and  _1321
REMARK  611  A    between atoms: _1320  and  _1323
REMARK  612  A    between atoms: _1323  and  _1324
REMARK  613  A    between atoms: _1324  and  _1325
REMARK  614  A    between atoms: _1325  and  _1326
REMARK  615  A    between atoms: _1330  and  _1331
REMARK  616  A    between atoms: _1331  and  _1332
REMARK  617  A    between atoms: _1334  and  _1335
REMARK  618  A    between atoms: _1335  and  _1336
REMARK  619  A    between atoms: _1335  and  _1338
REMARK  620  A    between atoms: _1341  and  _1342
REMARK  621  A    between atoms: _1342  and  _1343
REMARK  622  A    between atoms: _1342  and  _1345
REMARK  623  A    between atoms: _1345  and  _1346
REMARK  624  A    between atoms: _1346  and  _1347
REMARK  625  A    between atoms: _1347  and  _1348
REMARK  626  A    between atoms: _1350  and  _1351
REMARK  627  A    between atoms: _1351  and  _1352
REMARK  628  A    between atoms: _1351  and  _1354
REMARK  629  A    between atoms: _1357  and  _1358
REMARK  630  A    between atoms: _1358  and  _1359
REMARK  631  A    between atoms: _1358  and  _1361
REMARK  632  A    between atoms: _1361  and  _1362
REMARK  633  A    between atoms: _1365  and  _1366
REMARK  634  A    between atoms: _1366  and  _1367
REMARK  635  A    between atoms: _1366  and  _1369
REMARK  636  A    between atoms: _1369  and  _1370
REMARK  637  A    between atoms: _1373  and  _1374
REMARK  638  A    between atoms: _1374  and  _1375
REMARK  639  A    between atoms: _1374  and  _1377
REMARK  640  A    between atoms: _1377  and  _1378
REMARK  641  A    between atoms: _1383  and  _1384
REMARK  642  A    between atoms: _1384  and  _1385
REMARK  643  A    between atoms: _1384  and  _1387
REMARK  644  A    between atoms: _1387  and  _1388
REMARK  645  A    between atoms: _1391  and  _1392
REMARK  646  A    between atoms: _1392  and  _1393
REMARK  647  A    between atoms: _1392  and  _1395
REMARK  648  A    between atoms: _1395  and  _1396
REMARK  649  A    between atoms: _1396  and  _1397
REMARK  650  A    between atoms: _1397  and  _1398
REMARK  651  A    between atoms: _1400  and  _1401
REMARK  652  A    between atoms: _1401  and  _1402
REMARK  653  A    between atoms: _1401  and  _1404
REMARK  654  A    between atoms: _1404  and  _1405
REMARK  655  A    between atoms: _1405  and  _1406
REMARK  656  A    between atoms: _1409  and  _1410
REMARK  657  A    between atoms: _1410  and  _1411
REMARK  658  A    between atoms: _1410  and  _1413
REMARK  659  A    between atoms: _1413  and  _1414
REMARK  660  A    between atoms: _1417  and  _1418
REMARK  661  A    between atoms: _1418  and  _1419
REMARK  662  A    between atoms: _1418  and  _1421
REMARK  663  A    between atoms: _1421  and  _1422
REMARK  664  A    between atoms: _1422  and  _1423
REMARK  665  A    between atoms: _1426  and  _1427
REMARK  666  A    between atoms: _1427  and  _1428
REMARK  667  A    between atoms: _1427  and  _1430
REMARK  668  A    between atoms: _1433  and  _1434
REMARK  669  A    between atoms: _1434  and  _1435
REMARK  670  A    between atoms: _1434  and  _1437
REMARK  671  A    between atoms: _1437  and  _1438
REMARK  672  A    between atoms: _1438  and  _1439
REMARK  673  A    between atoms: _1442  and  _1443
REMARK  674  A    between atoms: _1443  and  _1444
REMARK  675  A    between atoms: _1443  and  _1446
REMARK  676  A    between atoms: _1446  and  _1447
REMARK  677  A    between atoms: _1454  and  _1455
REMARK  678  A    between atoms: _1455  and  _1456
REMARK  679  A    between atoms: _1455  and  _1458
REMARK  680  A    between atoms: _1458  and  _1459
REMARK  681  A    between atoms: _1462  and  _1463
REMARK  682  A    between atoms: _1463  and  _1464
REMARK  683  A    between atoms: _1463  and  _1466
REMARK  684  A    between atoms: _1466  and  _1467
REMARK  685  A    between atoms: _1467  and  _1468
REMARK  686  A    between atoms: _1471  and  _1472
REMARK  687  A    between atoms: _1472  and  _1473
REMARK  688  A    between atoms: _1472  and  _1475
REMARK  689  A    between atoms: _1475  and  _1476
REMARK  690  A    between atoms: _1476  and  _1477
REMARK  691  A    between atoms: _1480  and  _1481
REMARK  692  A    between atoms: _1481  and  _1482
REMARK  693  A    between atoms: _1481  and  _1484
REMARK  694  A    between atoms: _1484  and  _1485
REMARK  695  A    between atoms: _1485  and  _1486
REMARK  696  A    between atoms: _1486  and  _1487
REMARK  697  A    between atoms: _1491  and  _1492
REMARK  698  A    between atoms: _1492  and  _1493
REMARK  699  A    between atoms: _1492  and  _1495
REMARK  700  A    between atoms: _1495  and  _1496
REMARK  701  A    between atoms: _1496  and  _1497
REMARK  702  A    between atoms: _1497  and  _1498
REMARK  703  A    between atoms: _1502  and  _1503
REMARK  704  A    between atoms: _1503  and  _1504
REMARK  705  A    between atoms: _1503  and  _1506
REMARK  706  A    between atoms: _1506  and  _1507
REMARK  707  A    between atoms: _1510  and  _1511
REMARK  708  A    between atoms: _1511  and  _1512
REMARK  709  A    between atoms: _1511  and  _1514
REMARK  710  A    between atoms: _1514  and  _1515
REMARK  711  A    between atoms: _1515  and  _1516
REMARK  712  A    between atoms: _1516  and  _1517
REMARK  713  A    between atoms: _1519  and  _1520
REMARK  714  A    between atoms: _1520  and  _1521
REMARK  715  A    between atoms: _1520  and  _1523
REMARK  716  A    between atoms: _1523  and  _1524
REMARK  717  A    between atoms: _1524  and  _1525
REMARK  718  A    between atoms: _1528  and  _1529
REMARK  719  A    between atoms: _1529  and  _1530
REMARK  720  A    between atoms: _1529  and  _1532
REMARK  721  A    between atoms: _1532  and  _1533
REMARK  722  A    between atoms: _1536  and  _1537
REMARK  723  A    between atoms: _1537  and  _1538
REMARK  724  A    between atoms: _1537  and  _1540
REMARK  725  A    between atoms: _1543  and  _1544
REMARK  726  A    between atoms: _1544  and  _1545
REMARK  727  A    between atoms: _1544  and  _1547
REMARK  728  A    between atoms: _1547  and  _1548
REMARK  729  A    between atoms: _1548  and  _1549
REMARK  730  A    between atoms: _1549  and  _1550
REMARK  731  A    between atoms: _1552  and  _1553
REMARK  732  A    between atoms: _1553  and  _1554
REMARK  733  A    between atoms: _1553  and  _1556
REMARK  734  A    between atoms: _1556  and  _1557
REMARK  735  A    between atoms: _1557  and  _1558
REMARK  736  A    between atoms: _1558  and  _1559
REMARK  737  A    between atoms: _1561  and  _1562
REMARK  738  A    between atoms: _1562  and  _1563
REMARK  739  A    between atoms: _1562  and  _1565
REMARK  740  A    between atoms: _1565  and  _1566
REMARK  741  A    between atoms: _1571  and  _1572
REMARK  742  A    between atoms: _1572  and  _1573
REMARK  743  A    between atoms: _1572  and  _1575
REMARK  744  A    between atoms: _1577  and  _1578
REMARK  745  A    between atoms: _1578  and  _1579
REMARK  746  A    between atoms: _1578  and  _1581
REMARK  747  A    between atoms: _1581  and  _1582
REMARK  748  A    between atoms: _1582  and  _1583
REMARK  749  A    between atoms: _1586  and  _1587
REMARK  750  A    between atoms: _1587  and  _1588
REMARK  751  A    between atoms: _1587  and  _1590
REMARK  752  A    between atoms: _1590  and  _1591
REMARK  753  A    between atoms: _1597  and  _1598
REMARK  754  A    between atoms: _1598  and  _1599
REMARK  755  A    between atoms: _1598  and  _1601
REMARK  756  A    between atoms: _1601  and  _1602
REMARK  757  A    between atoms: _1605  and  _1606
REMARK  758  A    between atoms: _1606  and  _1607
REMARK  759  A    between atoms: _1609  and  _1610
REMARK  760  A    between atoms: _1610  and  _1611
REMARK  761  A    between atoms: _1610  and  _1613
REMARK  762  A    between atoms: _1613  and  _1614
REMARK  763  A    between atoms: _1622  and  _1623
REMARK  764  A    between atoms: _1628  and  _1629
REMARK  765  A    between atoms: _1629  and  _1630
REMARK  766  A    between atoms: _1629  and  _1632
REMARK  767  A    between atoms: _1632  and  _1633
REMARK  768  A    between atoms: _1636  and  _1637
REMARK  769  A    between atoms: _1637  and  _1638
REMARK  770  A    between atoms: _1637  and  _1640
REMARK  771  A    between atoms: _1643  and  _1644
REMARK  772  A    between atoms: _1644  and  _1645
REMARK  773  A    between atoms: _1644  and  _1647
REMARK  774  A    between atoms: _1647  and  _1648
REMARK  775  A    between atoms: _1651  and  _1652
REMARK  776  A    between atoms: _1652  and  _1653
REMARK  777  A    between atoms: _1652  and  _1655
REMARK  778  A    between atoms: _1655  and  _1656
REMARK  779  A    between atoms: _1662  and  _1663
REMARK  780  A    between atoms: _1663  and  _1664
REMARK  781  A    between atoms: _1663  and  _1666
REMARK  782  A    between atoms: _1669  and  _1670
REMARK  783  A    between atoms: _1670  and  _1671
REMARK  784  A    between atoms: _1670  and  _1673
REMARK  785  A    between atoms: _1673  and  _1674
REMARK  786  A    between atoms: _1674  and  _1675
REMARK                            x       y       z     vdW  Elec       q    Type
REMARK                         _______ _______ _______ _____ _____    ______ ____
ROOT
ATOM      1  O   HOH     1       3.659   9.804  25.763  0.00  0.00    +0.000 OA
ENDROOT
TORSDOF 0
REMARK  Name = /Users/mlugowska/PhD/ML_residence_time_prediction/protein_files/5J64_protein.pdb
REMARK  786 active torsions:
REMARK  status: ('A' for Active; 'I' for Inactive)
REMARK    1  A    between atoms: _2  and  _3
REMARK    2  A    between atoms: _2  and  _5
REMARK    3  A    between atoms: _5  and  _6
REMARK    4  A    between atoms: _6  and  _7
REMARK    5  A    between atoms: _10  and  _11
REMARK    6  A    between atoms: _11  and  _12
REMARK    7  A    between atoms: _11  and  _14
REMARK    8  A    between atoms: _17  and  _18
REMARK    9  A    between atoms: _18  and  _19
REMARK   10  A    between atoms: _18  and  _21
REMARK   11  A    between atoms: _21  and  _22
REMARK   12  A    between atoms: _22  and  _23
REMARK   13  A    between atoms: _26  and  _27
REMARK   14  A    between atoms: _27  and  _28
REMARK   15  A    between atoms: _27  and  _30
REMARK   16  A    between atoms: _33  and  _34
REMARK   17  A    between atoms: _34  and  _35
REMARK   18  A    between atoms: _34  and  _37
REMARK   19  A    between atoms: _37  and  _38
REMARK   20  A    between atoms: _44  and  _45
REMARK   21  A    between atoms: _45  and  _46
REMARK   22  A    between atoms: _49  and  _50
REMARK   23  A    between atoms: _50  and  _51
REMARK   24  A    between atoms: _50  and  _53
REMARK   25  A    between atoms: _53  and  _54
REMARK   26  A    between atoms: _60  and  _61
REMARK   27  A    between atoms: _61  and  _62
REMARK   28  A    between atoms: _61  and  _64
REMARK   29  A    between atoms: _64  and  _65
REMARK   30  A    between atoms: _65  and  _66
REMARK   31  A    between atoms: _69  and  _70
REMARK   32  A    between atoms: _70  and  _71
REMARK   33  A    between atoms: _74  and  _75
REMARK   34  A    between atoms: _75  and  _76
REMARK   35  A    between atoms: _75  and  _78
REMARK   36  A    between atoms: _78  and  _79
REMARK   37  A    between atoms: _79  and  _80
REMARK   38  A    between atoms: _83  and  _84
REMARK   39  A    between atoms: _84  and  _85
REMARK   40  A    between atoms: _84  and  _87
REMARK   41  A    between atoms: _87  and  _88
REMARK   42  A    between atoms: _91  and  _92
REMARK   43  A    between atoms: _92  and  _93
REMARK   44  A    between atoms: _96  and  _97
REMARK   45  A    between atoms: _97  and  _98
REMARK   46  A    between atoms: _97  and  _100
REMARK   47  A    between atoms: _100  and  _101
REMARK   48  A    between atoms: _101  and  _102
REMARK   49  A    between atoms: _105  and  _106
REMARK   50  A    between atoms: _106  and  _107
REMARK   51  A    between atoms: _106  and  _109
REMARK   52  A    between atoms: _109  and  _110
REMARK   53  A    between atoms: _113  and  _114
REMARK   54  A    between atoms: _114  and  _115
REMARK   55  A    between atoms: _114  and  _117
REMARK   56  A    between atoms: _117  and  _118
REMARK   57  A    between atoms: _118  and  _119
REMARK   58  A    between atoms: _121  and  _122
REMARK   59  A    between atoms: _122  and  _123
REMARK   60  A    between atoms: _122  and  _125
REMARK   61  A    between atoms: _127  and  _128
REMARK   62  A    between atoms: _128  and  _129
REMARK   63  A    between atoms: _128  and  _131
REMARK   64  A    between atoms: _131  and  _132
REMARK   65  A    between atoms: _135  and  _136
REMARK   66  A    between atoms: _136  and  _137
REMARK   67  A    between atoms: _136  and  _139
REMARK   68  A    between atoms: _139  and  _140
REMARK   69  A    between atoms: _143  and  _144
REMARK   70  A    between atoms: _144  and  _145
REMARK   71  A    between atoms: _144  and  _147
REMARK   72  A    between atoms: _147  and  _148
REMARK   73  A    between atoms: _151  and  _152
REMARK   74  A    between atoms: _152  and  _153
REMARK   75  A    between atoms: _152  and  _155
REMARK   76  A    between atoms: _155  and  _156
REMARK   77  A    between atoms: _159  and  _160
REMARK   78  A    between atoms: _160  and  _161
REMARK   79  A    between atoms: _160  and  _163
REMARK   80  A    between atoms: _166  and  _167
REMARK   81  A    between atoms: _167  and  _170
REMARK   82  A    between atoms: _170  and  _171
REMARK   83  A    between atoms: _181  and  _183
REMARK   84  A    between atoms: _183  and  _184
REMARK   85  A    between atoms: _189  and  _194
REMARK   86  A    between atoms: _192  and  _195
REMARK   87  A    between atoms: _193  and  _194
REMARK   88  A    between atoms: _195  and  _196
REMARK   89  A    between atoms: _201  and  _202
REMARK   90  A    between atoms: _202  and  _203
REMARK   91  A    between atoms: _202  and  _205
REMARK   92  A    between atoms: _207  and  _208
REMARK   93  A    between atoms: _208  and  _209
REMARK   94  A    between atoms: _208  and  _211
REMARK   95  A    between atoms: _211  and  _212
REMARK   96  A    between atoms: _215  and  _216
REMARK   97  A    between atoms: _216  and  _217
REMARK   98  A    between atoms: _216  and  _219
REMARK   99  A    between atoms: _219  and  _220
REMARK  100  A    between atoms: _220  and  _221
REMARK  101  A    between atoms: _221  and  _222
REMARK  102  A    between atoms: _224  and  _225
REMARK  103  A    between atoms: _225  and  _226
REMARK  104  A    between atoms: _225  and  _228
REMARK  105  A    between atoms: _228  and  _229
REMARK  106  A    between atoms: _229  and  _230
REMARK  107  A    between atoms: _233  and  _234
REMARK  108  A    between atoms: _234  and  _235
REMARK  109  A    between atoms: _234  and  _237
REMARK  110  A    between atoms: _237  and  _238
REMARK  111  A    between atoms: _241  and  _242
REMARK  112  A    between atoms: _242  and  _243
REMARK  113  A    between atoms: _242  and  _245
REMARK  114  A    between atoms: _245  and  _246
REMARK  115  A    between atoms: _252  and  _253
REMARK  116  A    between atoms: _253  and  _254
REMARK  117  A    between atoms: _253  and  _256
REMARK  118  A    between atoms: _256  and  _257
REMARK  119  A    between atoms: _260  and  _261
REMARK  120  A    between atoms: _261  and  _262
REMARK  121  A    between atoms: _261  and  _264
REMARK  122  A    between atoms: _264  and  _265
REMARK  123  A    between atoms: _265  and  _266
REMARK  124  A    between atoms: _266  and  _267
REMARK  125  A    between atoms: _271  and  _272
REMARK  126  A    between atoms: _272  and  _273
REMARK  127  A    between atoms: _272  and  _275
REMARK  128  A    between atoms: _275  and  _276
REMARK  129  A    between atoms: _276  and  _277
REMARK  130  A    between atoms: _280  and  _281
REMARK  131  A    between atoms: _281  and  _282
REMARK  132  A    between atoms: _281  and  _284
REMARK  133  A    between atoms: _284  and  _285
REMARK  134  A    between atoms: _288  and  _289
REMARK  135  A    between atoms: _289  and  _292
REMARK  136  A    between atoms: _292  and  _293
REMARK  137  A    between atoms: _309  and  _310
REMARK  138  A    between atoms: _309  and  _312
REMARK  139  A    between atoms: _312  and  _313
REMARK  140  A    between atoms: _316  and  _317
REMARK  141  A    between atoms: _317  and  _318
REMARK  142  A    between atoms: _317  and  _320
REMARK  143  A    between atoms: _322  and  _323
REMARK  144  A    between atoms: _323  and  _324
REMARK  145  A    between atoms: _323  and  _326
REMARK  146  A    between atoms: _328  and  _329
REMARK  147  A    between atoms: _329  and  _330
REMARK  148  A    between atoms: _329  and  _332
REMARK  149  A    between atoms: _332  and  _333
REMARK  150  A    between atoms: _336  and  _337
REMARK  151  A    between atoms: _337  and  _338
REMARK  152  A    between atoms: _341  and  _342
REMARK  153  A    between atoms: _342  and  _343
REMARK  154  A    between atoms: _342  and  _345
REMARK  155  A    between atoms: _345  and  _346
REMARK  156  A    between atoms: _349  and  _350
REMARK  157  A    between atoms: _350  and  _351
REMARK  158  A    between atoms: _350  and  _353
REMARK  159  A    between atoms: _353  and  _354
REMARK  160  A    between atoms: _357  and  _358
REMARK  161  A    between atoms: _358  and  _359
REMARK  162  A    between atoms: _358  and  _361
REMARK  163  A    between atoms: _361  and  _362
REMARK  164  A    between atoms: _362  and  _363
REMARK  165  A    between atoms: _363  and  _364
REMARK  166  A    between atoms: _366  and  _367
REMARK  167  A    between atoms: _367  and  _368
REMARK  168  A    between atoms: _367  and  _370
REMARK  169  A    between atoms: _370  and  _371
REMARK  170  A    between atoms: _374  and  _375
REMARK  171  A    between atoms: _375  and  _376
REMARK  172  A    between atoms: _375  and  _378
REMARK  173  A    between atoms: _378  and  _379
REMARK  174  A    between atoms: _379  and  _380
REMARK  175  A    between atoms: _380  and  _381
REMARK  176  A    between atoms: _385  and  _386
REMARK  177  A    between atoms: _386  and  _387
REMARK  178  A    between atoms: _386  and  _389
REMARK  179  A    between atoms: _389  and  _390
REMARK  180  A    between atoms: _397  and  _398
REMARK  181  A    between atoms: _398  and  _399
REMARK  182  A    between atoms: _398  and  _401
REMARK  183  A    between atoms: _401  and  _402
REMARK  184  A    between atoms: _402  and  _403
REMARK  185  A    between atoms: _406  and  _407
REMARK  186  A    between atoms: _407  and  _408
REMARK  187  A    between atoms: _407  and  _410
REMARK  188  A    between atoms: _412  and  _413
REMARK  189  A    between atoms: _413  and  _414
REMARK  190  A    between atoms: _413  and  _416
REMARK  191  A    between atoms: _416  and  _417
REMARK  192  A    between atoms: _420  and  _421
REMARK  193  A    between atoms: _421  and  _422
REMARK  194  A    between atoms: _421  and  _424
REMARK  195  A    between atoms: _427  and  _428
REMARK  196  A    between atoms: _428  and  _429
REMARK  197  A    between atoms: _428  and  _431
REMARK  198  A    between atoms: _431  and  _432
REMARK  199  A    between atoms: _436  and  _437
REMARK  200  A    between atoms: _442  and  _443
REMARK  201  A    between atoms: _443  and  _444
REMARK  202  A    between atoms: _443  and  _446
REMARK  203  A    between atoms: _448  and  _449
REMARK  204  A    between atoms: _449  and  _450
REMARK  205  A    between atoms: _449  and  _452
REMARK  206  A    between atoms: _452  and  _453
REMARK  207  A    between atoms: _453  and  _454
REMARK  208  A    between atoms: _454  and  _455
REMARK  209  A    between atoms: _457  and  _458
REMARK  210  A    between atoms: _458  and  _459
REMARK  211  A    between atoms: _458  and  _461
REMARK  212  A    between atoms: _461  and  _462
REMARK  213  A    between atoms: _465  and  _466
REMARK  214  A    between atoms: _466  and  _467
REMARK  215  A    between atoms: _466  and  _469
REMARK  216  A    between atoms: _469  and  _470
REMARK  217  A    between atoms: _473  and  _474
REMARK  218  A    between atoms: _474  and  _475
REMARK  219  A    between atoms: _474  and  _477
REMARK  220  A    between atoms: _479  and  _480
REMARK  221  A    between atoms: _480  and  _481
REMARK  222  A    between atoms: _483  and  _484
REMARK  223  A    between atoms: _484  and  _485
REMARK  224  A    between atoms: _484  and  _487
REMARK  225  A    between atoms: _487  and  _488
REMARK  226  A    between atoms: _488  and  _489
REMARK  227  A    between atoms: _489  and  _490
REMARK  228  A    between atoms: _492  and  _493
REMARK  229  A    between atoms: _493  and  _494
REMARK  230  A    between atoms: _493  and  _496
REMARK  231  A    between atoms: _496  and  _497
REMARK  232  A    between atoms: _497  and  _498
REMARK  233  A    between atoms: _501  and  _502
REMARK  234  A    between atoms: _502  and  _503
REMARK  235  A    between atoms: _502  and  _505
REMARK  236  A    between atoms: _505  and  _506
REMARK  237  A    between atoms: _509  and  _510
REMARK  238  A    between atoms: _510  and  _511
REMARK  239  A    between atoms: _510  and  _513
REMARK  240  A    between atoms: _513  and  _514
REMARK  241  A    between atoms: _519  and  _520
REMARK  242  A    between atoms: _520  and  _521
REMARK  243  A    between atoms: _520  and  _523
REMARK  244  A    between atoms: _523  and  _524
REMARK  245  A    between atoms: _527  and  _528
REMARK  246  A    between atoms: _528  and  _529
REMARK  247  A    between atoms: _528  and  _531
REMARK  248  A    between atoms: _531  and  _532
REMARK  249  A    between atoms: _535  and  _536
REMARK  250  A    between atoms: _536  and  _537
REMARK  251  A    between atoms: _536  and  _539
REMARK  252  A    between atoms: _539  and  _540
REMARK  253  A    between atoms: _543  and  _544
REMARK  254  A    between atoms: _544  and  _545
REMARK  255  A    between atoms: _544  and  _547
REMARK  256  A    between atoms: _547  and  _548
REMARK  257  A    between atoms: _552  and  _553
REMARK  258  A    between atoms: _558  and  _559
REMARK  259  A    between atoms: _559  and  _560
REMARK  260  A    between atoms: _559  and  _562
REMARK  261  A    between atoms: _562  and  _563
REMARK  262  A    between atoms: _566  and  _567
REMARK  263  A    between atoms: _567  and  _568
REMARK  264  A    between atoms: _567  and  _570
REMARK  265  A    between atoms: _570  and  _571
REMARK  266  A    between atoms: _571  and  _572
REMARK  267  A    between atoms: _572  and  _573
REMARK  268  A    between atoms: _575  and  _576
REMARK  269  A    between atoms: _576  and  _577
REMARK  270  A    between atoms: _576  and  _579
REMARK  271  A    between atoms: _579  and  _580
REMARK  272  A    between atoms: _580  and  _581
REMARK  273  A    between atoms: _584  and  _585
REMARK  274  A    between atoms: _585  and  _586
REMARK  275  A    between atoms: _585  and  _588
REMARK  276  A    between atoms: _588  and  _589
REMARK  277  A    between atoms: _592  and  _593
REMARK  278  A    between atoms: _593  and  _594
REMARK  279  A    between atoms: _593  and  _596
REMARK  280  A    between atoms: _596  and  _597
REMARK  281  A    between atoms: _597  and  _598
REMARK  282  A    between atoms: _598  and  _599
REMARK  283  A    between atoms: _603  and  _604
REMARK  284  A    between atoms: _604  and  _605
REMARK  285  A    between atoms: _604  and  _607
REMARK  286  A    between atoms: _610  and  _611
REMARK  287  A    between atoms: _611  and  _612
REMARK  288  A    between atoms: _611  and  _614
REMARK  289  A    between atoms: _614  and  _615
REMARK  290  A    between atoms: _618  and  _619
REMARK  291  A    between atoms: _619  and  _620
REMARK  292  A    between atoms: _619  and  _622
REMARK  293  A    between atoms: _625  and  _626
REMARK  294  A    between atoms: _626  and  _627
REMARK  295  A    between atoms: _626  and  _629
REMARK  296  A    between atoms: _629  and  _630
REMARK  297  A    between atoms: _633  and  _634
REMARK  298  A    between atoms: _634  and  _635
REMARK  299  A    between atoms: _634  and  _637
REMARK  300  A    between atoms: _640  and  _641
REMARK  301  A    between atoms: _641  and  _642
REMARK  302  A    between atoms: _641  and  _644
REMARK  303  A    between atoms: _644  and  _645
REMARK  304  A    between atoms: _648  and  _649
REMARK  305  A    between atoms: _649  and  _650
REMARK  306  A    between atoms: _649  and  _652
REMARK  307  A    between atoms: _655  and  _656
REMARK  308  A    between atoms: _656  and  _657
REMARK  309  A    between atoms: _659  and  _660
REMARK  310  A    between atoms: _660  and  _661
REMARK  311  A    between atoms: _660  and  _663
REMARK  312  A    between atoms: _663  and  _664
REMARK  313  A    between atoms: _667  and  _668
REMARK  314  A    between atoms: _668  and  _669
REMARK  315  A    between atoms: _671  and  _672
REMARK  316  A    between atoms: _672  and  _673
REMARK  317  A    between atoms: _672  and  _675
REMARK  318  A    between atoms: _675  and  _676
REMARK  319  A    between atoms: _676  and  _677
REMARK  320  A    between atoms: _679  and  _680
REMARK  321  A    between atoms: _680  and  _681
REMARK  322  A    between atoms: _680  and  _683
REMARK  323  A    between atoms: _686  and  _687
REMARK  324  A    between atoms: _687  and  _688
REMARK  325  A    between atoms: _687  and  _690
REMARK  326  A    between atoms: _690  and  _691
REMARK  327  A    between atoms: _691  and  _692
REMARK  328  A    between atoms: _692  and  _693
REMARK  329  A    between atoms: _695  and  _696
REMARK  330  A    between atoms: _696  and  _697
REMARK  331  A    between atoms: _700  and  _701
REMARK  332  A    between atoms: _701  and  _702
REMARK  333  A    between atoms: _701  and  _704
REMARK  334  A    between atoms: _704  and  _705
REMARK  335  A    between atoms: _708  and  _709
REMARK  336  A    between atoms: _709  and  _710
REMARK  337  A    between atoms: _709  and  _712
REMARK  338  A    between atoms: _712  and  _713
REMARK  339  A    between atoms: _716  and  _717
REMARK  340  A    between atoms: _717  and  _720
REMARK  341  A    between atoms: _720  and  _721
REMARK  342  A    between atoms: _733  and  _734
REMARK  343  A    between atoms: _733  and  _735
REMARK  344  A    between atoms: _741  and  _744
REMARK  345  A    between atoms: _744  and  _745
REMARK  346  A    between atoms: _758  and  _759
REMARK  347  A    between atoms: _758  and  _761
REMARK  348  A    between atoms: _759  and  _760
REMARK  349  A    between atoms: _765  and  _766
REMARK  350  A    between atoms: _768  and  _769
REMARK  351  A    between atoms: _769  and  _770
REMARK  352  A    between atoms: _769  and  _772
REMARK  353  A    between atoms: _775  and  _776
REMARK  354  A    between atoms: _776  and  _777
REMARK  355  A    between atoms: _776  and  _779
REMARK  356  A    between atoms: _779  and  _780
REMARK  357  A    between atoms: _783  and  _784
REMARK  358  A    between atoms: _784  and  _785
REMARK  359  A    between atoms: _788  and  _789
REMARK  360  A    between atoms: _789  and  _790
REMARK  361  A    between atoms: _789  and  _792
REMARK  362  A    between atoms: _792  and  _793
REMARK  363  A    between atoms: _793  and  _794
REMARK  364  A    between atoms: _794  and  _795
REMARK  365  A    between atoms: _797  and  _798
REMARK  366  A    between atoms: _798  and  _799
REMARK  367  A    between atoms: _798  and  _801
REMARK  368  A    between atoms: _803  and  _804
REMARK  369  A    between atoms: _804  and  _805
REMARK  370  A    between atoms: _807  and  _808
REMARK  371  A    between atoms: _808  and  _809
REMARK  372  A    between atoms: _808  and  _811
REMARK  373  A    between atoms: _814  and  _815
REMARK  374  A    between atoms: _815  and  _816
REMARK  375  A    between atoms: _815  and  _818
REMARK  376  A    between atoms: _818  and  _819
REMARK  377  A    between atoms: _819  and  _820
REMARK  378  A    between atoms: _820  and  _821
REMARK  379  A    between atoms: _823  and  _824
REMARK  380  A    between atoms: _824  and  _825
REMARK  381  A    between atoms: _828  and  _829
REMARK  382  A    between atoms: _829  and  _830
REMARK  383  A    between atoms: _829  and  _832
REMARK  384  A    between atoms: _832  and  _833
REMARK  385  A    between atoms: _839  and  _840
REMARK  386  A    between atoms: _840  and  _841
REMARK  387  A    between atoms: _840  and  _843
REMARK  388  A    between atoms: _843  and  _844
REMARK  389  A    between atoms: _844  and  _845
REMARK  390  A    between atoms: _847  and  _848
REMARK  391  A    between atoms: _848  and  _849
REMARK  392  A    between atoms: _848  and  _851
REMARK  393  A    between atoms: _851  and  _852
REMARK  394  A    between atoms: _852  and  _853
REMARK  395  A    between atoms: _856  and  _857
REMARK  396  A    between atoms: _857  and  _858
REMARK  397  A    between atoms: _861  and  _862
REMARK  398  A    between atoms: _862  and  _863
REMARK  399  A    between atoms: _862  and  _865
REMARK  400  A    between atoms: _865  and  _866
REMARK  401  A    between atoms: _869  and  _870
REMARK  402  A    between atoms: _870  and  _871
REMARK  403  A    between atoms: _870  and  _873
REMARK  404  A    between atoms: _873  and  _874
REMARK  405  A    between atoms: _874  and  _875
REMARK  406  A    between atoms: _878  and  _879
REMARK  407  A    between atoms: _879  and  _880
REMARK  408  A    between atoms: _883  and  _884
REMARK  409  A    between atoms: _884  and  _885
REMARK  410  A    between atoms: _887  and  _888
REMARK  411  A    between atoms: _888  and  _889
REMARK  412  A    between atoms: _892  and  _893
REMARK  413  A    between atoms: _893  and  _894
REMARK  414  A    between atoms: _893  and  _896
REMARK  415  A    between atoms: _896  and  _897
REMARK  416  A    between atoms: _900  and  _901
REMARK  417  A    between atoms: _901  and  _902
REMARK  418  A    between atoms: _901  and  _904
REMARK  419  A    between atoms: _904  and  _905
REMARK  420  A    between atoms: _908  and  _909
REMARK  421  A    between atoms: _909  and  _910
REMARK  422  A    between atoms: _909  and  _912
REMARK  423  A    between atoms: _914  and  _915
REMARK  424  A    between atoms: _915  and  _916
REMARK  425  A    between atoms: _915  and  _918
REMARK  426  A    between atoms: _918  and  _919
REMARK  427  A    between atoms: _919  and  _920
REMARK  428  A    between atoms: _922  and  _923
REMARK  429  A    between atoms: _923  and  _924
REMARK  430  A    between atoms: _923  and  _926
REMARK  431  A    between atoms: _926  and  _927
REMARK  432  A    between atoms: _930  and  _931
REMARK  433  A    between atoms: _931  and  _932
REMARK  434  A    between atoms: _934  and  _935
REMARK  435  A    between atoms: _935  and  _936
REMARK  436  A    between atoms: _935  and  _938
REMARK  437  A    between atoms: _938  and  _939
REMARK  438  A    between atoms: _939  and  _940
REMARK  439  A    between atoms: _943  and  _944
REMARK  440  A    between atoms: _944  and  _945
REMARK  441  A    between atoms: _944  and  _947
REMARK  442  A    between atoms: _947  and  _948
REMARK  443  A    between atoms: _954  and  _955
REMARK  444  A    between atoms: _955  and  _956
REMARK  445  A    between atoms: _958  and  _959
REMARK  446  A    between atoms: _959  and  _960
REMARK  447  A    between atoms: _959  and  _962
REMARK  448  A    between atoms: _965  and  _966
REMARK  449  A    between atoms: _966  and  _967
REMARK  450  A    between atoms: _969  and  _970
REMARK  451  A    between atoms: _970  and  _971
REMARK  452  A    between atoms: _970  and  _973
REMARK  453  A    between atoms: _973  and  _974
REMARK  454  A    between atoms: _980  and  _981
REMARK  455  A    between atoms: _981  and  _982
REMARK  456  A    between atoms: _981  and  _984
REMARK  457  A    between atoms: _984  and  _985
REMARK  458  A    between atoms: _992  and  _993
REMARK  459  A    between atoms: _993  and  _994
REMARK  460  A    between atoms: _993  and  _996
REMARK  461  A    between atoms: _998  and  _999
REMARK  462  A    between atoms: _999  and  _1000
REMARK  463  A    between atoms: _1003  and  _1004
REMARK  464  A    between atoms: _1004  and  _1005
REMARK  465  A    between atoms: _1004  and  _1007
REMARK  466  A    between atoms: _1007  and  _1008
REMARK  467  A    between atoms: _1015  and  _1016
REMARK  468  A    between atoms: _1016  and  _1017
REMARK  469  A    between atoms: _1016  and  _1019
REMARK  470  A    between atoms: _1019  and  _1020
REMARK  471  A    between atoms: _1023  and  _1024
REMARK  472  A    between atoms: _1024  and  _1025
REMARK  473  A    between atoms: _1024  and  _1027
REMARK  474  A    between atoms: _1030  and  _1031
REMARK  475  A    between atoms: _1031  and  _1032
REMARK  476  A    between atoms: _1035  and  _1036
REMARK  477  A    between atoms: _1036  and  _1037
REMARK  478  A    between atoms: _1036  and  _1039
REMARK  479  A    between atoms: _1039  and  _1040
REMARK  480  A    between atoms: _1040  and  _1041
REMARK  481  A    between atoms: _1044  and  _1045
REMARK  482  A    between atoms: _1045  and  _1046
REMARK  483  A    between atoms: _1045  and  _1048
REMARK  484  A    between atoms: _1048  and  _1049
REMARK  485  A    between atoms: _1049  and  _1050
REMARK  486  A    between atoms: _1050  and  _1051
REMARK  487  A    between atoms: _1053  and  _1054
REMARK  488  A    between atoms: _1054  and  _1055
REMARK  489  A    between atoms: _1054  and  _1057
REMARK  490  A    between atoms: _1060  and  _1061
REMARK  491  A    between atoms: _1061  and  _1062
REMARK  492  A    between atoms: _1061  and  _1064
REMARK  493  A    between atoms: _1067  and  _1068
REMARK  494  A    between atoms: _1068  and  _1069
REMARK  495  A    between atoms: _1068  and  _1071
REMARK  496  A    between atoms: _1074  and  _1075
REMARK  497  A    between atoms: _1075  and  _1076
REMARK  498  A    between atoms: _1075  and  _1078
REMARK  499  A    between atoms: _1078  and  _1079
REMARK  500  A    between atoms: _1082  and  _1083
REMARK  501  A    between atoms: _1083  and  _1084
REMARK  502  A    between atoms: _1083  and  _1086
REMARK  503  A    between atoms: _1089  and  _1090
REMARK  504  A    between atoms: _1090  and  _1091
REMARK  505  A    between atoms: _1090  and  _1093
REMARK  506  A    between atoms: _1093  and  _1094
REMARK  507  A    between atoms: _1094  and  _1095
REMARK  508  A    between atoms: _1095  and  _1096
REMARK  509  A    between atoms: _1098  and  _1099
REMARK  510  A    between atoms: _1099  and  _1100
REMARK  511  A    between atoms: _1099  and  _1102
REMARK  512  A    between atoms: _1102  and  _1103
REMARK  513  A    between atoms: _1108  and  _1109
REMARK  514  A    between atoms: _1109  and  _1110
REMARK  515  A    between atoms: _1109  and  _1112
REMARK  516  A    between atoms: _1112  and  _1113
REMARK  517  A    between atoms: _1116  and  _1117
REMARK  518  A    between atoms: _1117  and  _1118
REMARK  519  A    between atoms: _1117  and  _1120
REMARK  520  A    between atoms: _1120  and  _1121
REMARK  521  A    between atoms: _1124  and  _1125
REMARK  522  A    between atoms: _1125  and  _1126
REMARK  523  A    between atoms: _1125  and  _1128
REMARK  524  A    between atoms: _1128  and  _1129
REMARK  525  A    between atoms: _1132  and  _1133
REMARK  526  A    between atoms: _1133  and  _1134
REMARK  527  A    between atoms: _1133  and  _1136
REMARK  528  A    between atoms: _1136  and  _1137
REMARK  529  A    between atoms: _1137  and  _1138
REMARK  530  A    between atoms: _1141  and  _1142
REMARK  531  A    between atoms: _1142  and  _1143
REMARK  532  A    between atoms: _1142  and  _1145
REMARK  533  A    between atoms: _1145  and  _1146
REMARK  534  A    between atoms: _1146  and  _1147
REMARK  535  A    between atoms: _1150  and  _1151
REMARK  536  A    between atoms: _1151  and  _1152
REMARK  537  A    between atoms: _1151  and  _1154
REMARK  538  A    between atoms: _1154  and  _1155
REMARK  539  A    between atoms: _1162  and  _1163
REMARK  540  A    between atoms: _1163  and  _1164
REMARK  541  A    between atoms: _1167  and  _1168
REMARK  542  A    between atoms: _1168  and  _1169
REMARK  543  A    between atoms: _1168  and  _1171
REMARK  544  A    between atoms: _1171  and  _1172
REMARK  545  A    between atoms: _1181  and  _1182
REMARK  546  A    between atoms: _1182  and  _1183
REMARK  547  A    between atoms: _1182  and  _1185
REMARK  548  A    between atoms: _1185  and  _1186
REMARK  549  A    between atoms: _1186  and  _1187
REMARK  550  A    between atoms: _1190  and  _1191
REMARK  551  A    between atoms: _1191  and  _1192
REMARK  552  A    between atoms: _1191  and  _1194
REMARK  553  A    between atoms: _1196  and  _1197
REMARK  554  A    between atoms: _1197  and  _1198
REMARK  555  A    between atoms: _1197  and  _1200
REMARK  556  A    between atoms: _1202  and  _1203
REMARK  557  A    between atoms: _1203  and  _1204
REMARK  558  A    between atoms: _1207  and  _1208
REMARK  559  A    between atoms: _1208  and  _1209
REMARK  560  A    between atoms: _1211  and  _1212
REMARK  561  A    between atoms: _1212  and  _1213
REMARK  562  A    between atoms: _1215  and  _1216
REMARK  563  A    between atoms: _1216  and  _1217
REMARK  564  A    between atoms: _1216  and  _1219
REMARK  565  A    between atoms: _1221  and  _1222
REMARK  566  A    between atoms: _1222  and  _1223
REMARK  567  A    between atoms: _1222  and  _1225
REMARK  568  A    between atoms: _1225  and  _1226
REMARK  569  A    between atoms: _1232  and  _1233
REMARK  570  A    between atoms: _1233  and  _1234
REMARK  571  A    between atoms: _1233  and  _1236
REMARK  572  A    between atoms: _1239  and  _1240
REMARK  573  A    between atoms: _1240  and  _1241
REMARK  574  A    between atoms: _1240  and  _1243
REMARK  575  A    between atoms: _1247  and  _1249
REMARK  576  A    between atoms: _1247  and  _1252
REMARK  577  A    between atoms: _1251  and  _1252
REMARK  578  A    between atoms: _1251  and  _1254
REMARK  579  A    between atoms: _1253  and  _1254
REMARK  580  A    between atoms: _1253  and  _1256
REMARK  581  A    between atoms: _1254  and  _1255
REMARK  582  A    between atoms: _1255  and  _1257
REMARK  583  A    between atoms: _1256  and  _1258
REMARK  584  A    between atoms: _1265  and  _1266
REMARK  585  A    between atoms: _1266  and  _1267
REMARK  586  A    between atoms: _1266  and  _1269
REMARK  587  A    between atoms: _1272  and  _1273
REMARK  588  A    between atoms: _1273  and  _1274
REMARK  589  A    between atoms: _1273  and  _1276
REMARK  590  A    between atoms: _1276  and  _1277
REMARK  591  A    between atoms: _1280  and  _1281
REMARK  592  A    between atoms: _1281  and  _1282
REMARK  593  A    between atoms: _1281  and  _1284
REMARK  594  A    between atoms: _1287  and  _1288
REMARK  595  A    between atoms: _1288  and  _1289
REMARK  596  A    between atoms: _1291  and  _1292
REMARK  597  A    between atoms: _1292  and  _1293
REMARK  598  A    between atoms: _1292  and  _1295
REMARK  599  A    between atoms: _1295  and  _1296
REMARK  600  A    between atoms: _1296  and  _1297
REMARK  601  A    between atoms: _1301  and  _1302
REMARK  602  A    between atoms: _1307  and  _1308
REMARK  603  A    between atoms: _1308  and  _1309
REMARK  604  A    between atoms: _1308  and  _1311
REMARK  605  A    between atoms: _1311  and  _1312
REMARK  606  A    between atoms: _1312  and  _1313
REMARK  607  A    between atoms: _1315  and  _1316
REMARK  608  A    between atoms: _1316  and  _1317
REMARK  609  A    between atoms: _1319  and  _1320
REMARK  610  A    between atoms: _1320  and  _1321
REMARK  611  A    between atoms: _1320  and  _1323
REMARK  612  A    between atoms: _1323  and  _1324
REMARK  613  A    between atoms: _1324  and  _1325
REMARK  614  A    between atoms: _1325  and  _1326
REMARK  615  A    between atoms: _1330  and  _1331
REMARK  616  A    between atoms: _1331  and  _1332
REMARK  617  A    between atoms: _1334  and  _1335
REMARK  618  A    between atoms: _1335  and  _1336
REMARK  619  A    between atoms: _1335  and  _1338
REMARK  620  A    between atoms: _1341  and  _1342
REMARK  621  A    between atoms: _1342  and  _1343
REMARK  622  A    between atoms: _1342  and  _1345
REMARK  623  A    between atoms: _1345  and  _1346
REMARK  624  A    between atoms: _1346  and  _1347
REMARK  625  A    between atoms: _1347  and  _1348
REMARK  626  A    between atoms: _1350  and  _1351
REMARK  627  A    between atoms: _1351  and  _1352
REMARK  628  A    between atoms: _1351  and  _1354
REMARK  629  A    between atoms: _1357  and  _1358
REMARK  630  A    between atoms: _1358  and  _1359
REMARK  631  A    between atoms: _1358  and  _1361
REMARK  632  A    between atoms: _1361  and  _1362
REMARK  633  A    between atoms: _1365  and  _1366
REMARK  634  A    between atoms: _1366  and  _1367
REMARK  635  A    between atoms: _1366  and  _1369
REMARK  636  A    between atoms: _1369  and  _1370
REMARK  637  A    between atoms: _1373  and  _1374
REMARK  638  A    between atoms: _1374  and  _1375
REMARK  639  A    between atoms: _1374  and  _1377
REMARK  640  A    between atoms: _1377  and  _1378
REMARK  641  A    between atoms: _1383  and  _1384
REMARK  642  A    between atoms: _1384  and  _1385
REMARK  643  A    between atoms: _1384  and  _1387
REMARK  644  A    between atoms: _1387  and  _1388
REMARK  645  A    between atoms: _1391  and  _1392
REMARK  646  A    between atoms: _1392  and  _1393
REMARK  647  A    between atoms: _1392  and  _1395
REMARK  648  A    between atoms: _1395  and  _1396
REMARK  649  A    between atoms: _1396  and  _1397
REMARK  650  A    between atoms: _1397  and  _1398
REMARK  651  A    between atoms: _1400  and  _1401
REMARK  652  A    between atoms: _1401  and  _1402
REMARK  653  A    between atoms: _1401  and  _1404
REMARK  654  A    between atoms: _1404  and  _1405
REMARK  655  A    between atoms: _1405  and  _1406
REMARK  656  A    between atoms: _1409  and  _1410
REMARK  657  A    between atoms: _1410  and  _1411
REMARK  658  A    between atoms: _1410  and  _1413
REMARK  659  A    between atoms: _1413  and  _1414
REMARK  660  A    between atoms: _1417  and  _1418
REMARK  661  A    between atoms: _1418  and  _1419
REMARK  662  A    between atoms: _1418  and  _1421
REMARK  663  A    between atoms: _1421  and  _1422
REMARK  664  A    between atoms: _1422  and  _1423
REMARK  665  A    between atoms: _1426  and  _1427
REMARK  666  A    between atoms: _1427  and  _1428
REMARK  667  A    between atoms: _1427  and  _1430
REMARK  668  A    between atoms: _1433  and  _1434
REMARK  669  A    between atoms: _1434  and  _1435
REMARK  670  A    between atoms: _1434  and  _1437
REMARK  671  A    between atoms: _1437  and  _1438
REMARK  672  A    between atoms: _1438  and  _1439
REMARK  673  A    between atoms: _1442  and  _1443
REMARK  674  A    between atoms: _1443  and  _1444
REMARK  675  A    between atoms: _1443  and  _1446
REMARK  676  A    between atoms: _1446  and  _1447
REMARK  677  A    between atoms: _1454  and  _1455
REMARK  678  A    between atoms: _1455  and  _1456
REMARK  679  A    between atoms: _1455  and  _1458
REMARK  680  A    between atoms: _1458  and  _1459
REMARK  681  A    between atoms: _1462  and  _1463
REMARK  682  A    between atoms: _1463  and  _1464
REMARK  683  A    between atoms: _1463  and  _1466
REMARK  684  A    between atoms: _1466  and  _1467
REMARK  685  A    between atoms: _1467  and  _1468
REMARK  686  A    between atoms: _1471  and  _1472
REMARK  687  A    between atoms: _1472  and  _1473
REMARK  688  A    between atoms: _1472  and  _1475
REMARK  689  A    between atoms: _1475  and  _1476
REMARK  690  A    between atoms: _1476  and  _1477
REMARK  691  A    between atoms: _1480  and  _1481
REMARK  692  A    between atoms: _1481  and  _1482
REMARK  693  A    between atoms: _1481  and  _1484
REMARK  694  A    between atoms: _1484  and  _1485
REMARK  695  A    between atoms: _1485  and  _1486
REMARK  696  A    between atoms: _1486  and  _1487
REMARK  697  A    between atoms: _1491  and  _1492
REMARK  698  A    between atoms: _1492  and  _1493
REMARK  699  A    between atoms: _1492  and  _1495
REMARK  700  A    between atoms: _1495  and  _1496
REMARK  701  A    between atoms: _1496  and  _1497
REMARK  702  A    between atoms: _1497  and  _1498
REMARK  703  A    between atoms: _1502  and  _1503
REMARK  704  A    between atoms: _1503  and  _1504
REMARK  705  A    between atoms: _1503  and  _1506
REMARK  706  A    between atoms: _1506  and  _1507
REMARK  707  A    between atoms: _1510  and  _1511
REMARK  708  A    between atoms: _1511  and  _1512
REMARK  709  A    between atoms: _1511  and  _1514
REMARK  710  A    between atoms: _1514  and  _1515
REMARK  711  A    between atoms: _1515  and  _1516
REMARK  712  A    between atoms: _1516  and  _1517
REMARK  713  A    between atoms: _1519  and  _1520
REMARK  714  A    between atoms: _1520  and  _1521
REMARK  715  A    between atoms: _1520  and  _1523
REMARK  716  A    between atoms: _1523  and  _1524
REMARK  717  A    between atoms: _1524  and  _1525
REMARK  718  A    between atoms: _1528  and  _1529
REMARK  719  A    between atoms: _1529  and  _1530
REMARK  720  A    between atoms: _1529  and  _1532
REMARK  721  A    between atoms: _1532  and  _1533
REMARK  722  A    between atoms: _1536  and  _1537
REMARK  723  A    between atoms: _1537  and  _1538
REMARK  724  A    between atoms: _1537  and  _1540
REMARK  725  A    between atoms: _1543  and  _1544
REMARK  726  A    between atoms: _1544  and  _1545
REMARK  727  A    between atoms: _1544  and  _1547
REMARK  728  A    between atoms: _1547  and  _1548
REMARK  729  A    between atoms: _1548  and  _1549
REMARK  730  A    between atoms: _1549  and  _1550
REMARK  731  A    between atoms: _1552  and  _1553
REMARK  732  A    between atoms: _1553  and  _1554
REMARK  733  A    between atoms: _1553  and  _1556
REMARK  734  A    between atoms: _1556  and  _1557
REMARK  735  A    between atoms: _1557  and  _1558
REMARK  736  A    between atoms: _1558  and  _1559
REMARK  737  A    between atoms: _1561  and  _1562
REMARK  738  A    between atoms: _1562  and  _1563
REMARK  739  A    between atoms: _1562  and  _1565
REMARK  740  A    between atoms: _1565  and  _1566
REMARK  741  A    between atoms: _1571  and  _1572
REMARK  742  A    between atoms: _1572  and  _1573
REMARK  743  A    between atoms: _1572  and  _1575
REMARK  744  A    between atoms: _1577  and  _1578
REMARK  745  A    between atoms: _1578  and  _1579
REMARK  746  A    between atoms: _1578  and  _1581
REMARK  747  A    between atoms: _1581  and  _1582
REMARK  748  A    between atoms: _1582  and  _1583
REMARK  749  A    between atoms: _1586  and  _1587
REMARK  750  A    between atoms: _1587  and  _1588
REMARK  751  A    between atoms: _1587  and  _1590
REMARK  752  A    between atoms: _1590  and  _1591
REMARK  753  A    between atoms: _1597  and  _1598
REMARK  754  A    between atoms: _1598  and  _1599
REMARK  755  A    between atoms: _1598  and  _1601
REMARK  756  A    between atoms: _1601  and  _1602
REMARK  757  A    between atoms: _1605  and  _1606
REMARK  758  A    between atoms: _1606  and  _1607
REMARK  759  A    between atoms: _1609  and  _1610
REMARK  760  A    between atoms: _1610  and  _1611
REMARK  761  A    between atoms: _1610  and  _1613
REMARK  762  A    between atoms: _1613  and  _1614
REMARK  763  A    between atoms: _1622  and  _1623
REMARK  764  A    between atoms: _1628  and  _1629
REMARK  765  A    between atoms: _1629  and  _1630
REMARK  766  A    between atoms: _1629  and  _1632
REMARK  767  A    between atoms: _1632  and  _1633
REMARK  768  A    between atoms: _1636  and  _1637
REMARK  769  A    between atoms: _1637  and  _1638
REMARK  770  A    between atoms: _1637  and  _1640
REMARK  771  A    between atoms: _1643  and  _1644
REMARK  772  A    between atoms: _1644  and  _1645
REMARK  773  A    between atoms: _1644  and  _1647
REMARK  774  A    between atoms: _1647  and  _1648
REMARK  775  A    between atoms: _1651  and  _1652
REMARK  776  A    between atoms: _1652  and  _1653
REMARK  777  A    between atoms: _1652  and  _1655
REMARK  778  A    between atoms: _1655  and  _1656
REMARK  779  A    between atoms: _1662  and  _1663
REMARK  780  A    between atoms: _1663  and  _1664
REMARK  781  A    between atoms: _1663  and  _1666
REMARK  782  A    between atoms: _1669  and  _1670
REMARK  783  A    between atoms: _1670  and  _1671
REMARK  784  A    between atoms: _1670  and  _1673
REMARK  785  A    between atoms: _1673  and  _1674
REMARK  786  A    between atoms: _1674  and  _1675
REMARK                            x       y       z     vdW  Elec       q    Type
REMARK                         _______ _______ _______ _____ _____    ______ ____
ROOT
ATOM      1  C   UNL     1       4.337  14.171  25.947  0.00  0.00    +0.000 C 
ENDROOT
BRANCH   1   2
ATOM      2  C   UNL     1       3.818  14.825  26.294  0.00  0.00    +0.000 C 
ATOM      3  C   UNL     1       3.176  14.919  25.366  0.00  0.00    +0.000 C 
ENDBRANCH   1   2
BRANCH   1   4
ATOM      4  C   UNL     1       4.441  14.038  25.156  0.00  0.00    +0.000 C 
BRANCH   4   5
ATOM      5  C   UNL     1       5.642  14.638  25.300  0.00  0.00    +0.000 C 
ATOM      6  C   UNL     1       5.896  14.480  24.919  0.00  0.00    +0.000 C 
ENDBRANCH   4   5
ENDBRANCH   1   4
TORSDOF 3
REMARK  Name = /Users/mlugowska/PhD/ML_residence_time_prediction/protein_files/5J64_protein.pdb
REMARK  786 active torsions:
REMARK  status: ('A' for Active; 'I' for Inactive)
REMARK    1  A    between atoms: _2  and  _3
REMARK    2  A    between atoms: _2  and  _5
REMARK    3  A    between atoms: _5  and  _6
REMARK    4  A    between atoms: _6  and  _7
REMARK    5  A    between atoms: _10  and  _11
REMARK    6  A    between atoms: _11  and  _12
REMARK    7  A    between atoms: _11  and  _14
REMARK    8  A    between atoms: _17  and  _18
REMARK    9  A    between atoms: _18  and  _19
REMARK   10  A    between atoms: _18  and  _21
REMARK   11  A    between atoms: _21  and  _22
REMARK   12  A    between atoms: _22  and  _23
REMARK   13  A    between atoms: _26  and  _27
REMARK   14  A    between atoms: _27  and  _28
REMARK   15  A    between atoms: _27  and  _30
REMARK   16  A    between atoms: _33  and  _34
REMARK   17  A    between atoms: _34  and  _35
REMARK   18  A    between atoms: _34  and  _37
REMARK   19  A    between atoms: _37  and  _38
REMARK   20  A    between atoms: _44  and  _45
REMARK   21  A    between atoms: _45  and  _46
REMARK   22  A    between atoms: _49  and  _50
REMARK   23  A    between atoms: _50  and  _51
REMARK   24  A    between atoms: _50  and  _53
REMARK   25  A    between atoms: _53  and  _54
REMARK   26  A    between atoms: _60  and  _61
REMARK   27  A    between atoms: _61  and  _62
REMARK   28  A    between atoms: _61  and  _64
REMARK   29  A    between atoms: _64  and  _65
REMARK   30  A    between atoms: _65  and  _66
REMARK   31  A    between atoms: _69  and  _70
REMARK   32  A    between atoms: _70  and  _71
REMARK   33  A    between atoms: _74  and  _75
REMARK   34  A    between atoms: _75  and  _76
REMARK   35  A    between atoms: _75  and  _78
REMARK   36  A    between atoms: _78  and  _79
REMARK   37  A    between atoms: _79  and  _80
REMARK   38  A    between atoms: _83  and  _84
REMARK   39  A    between atoms: _84  and  _85
REMARK   40  A    between atoms: _84  and  _87
REMARK   41  A    between atoms: _87  and  _88
REMARK   42  A    between atoms: _91  and  _92
REMARK   43  A    between atoms: _92  and  _93
REMARK   44  A    between atoms: _96  and  _97
REMARK   45  A    between atoms: _97  and  _98
REMARK   46  A    between atoms: _97  and  _100
REMARK   47  A    between atoms: _100  and  _101
REMARK   48  A    between atoms: _101  and  _102
REMARK   49  A    between atoms: _105  and  _106
REMARK   50  A    between atoms: _106  and  _107
REMARK   51  A    between atoms: _106  and  _109
REMARK   52  A    between atoms: _109  and  _110
REMARK   53  A    between atoms: _113  and  _114
REMARK   54  A    between atoms: _114  and  _115
REMARK   55  A    between atoms: _114  and  _117
REMARK   56  A    between atoms: _117  and  _118
REMARK   57  A    between atoms: _118  and  _119
REMARK   58  A    between atoms: _121  and  _122
REMARK   59  A    between atoms: _122  and  _123
REMARK   60  A    between atoms: _122  and  _125
REMARK   61  A    between atoms: _127  and  _128
REMARK   62  A    between atoms: _128  and  _129
REMARK   63  A    between atoms: _128  and  _131
REMARK   64  A    between atoms: _131  and  _132
REMARK   65  A    between atoms: _135  and  _136
REMARK   66  A    between atoms: _136  and  _137
REMARK   67  A    between atoms: _136  and  _139
REMARK   68  A    between atoms: _139  and  _140
REMARK   69  A    between atoms: _143  and  _144
REMARK   70  A    between atoms: _144  and  _145
REMARK   71  A    between atoms: _144  and  _147
REMARK   72  A    between atoms: _147  and  _148
REMARK   73  A    between atoms: _151  and  _152
REMARK   74  A    between atoms: _152  and  _153
REMARK   75  A    between atoms: _152  and  _155
REMARK   76  A    between atoms: _155  and  _156
REMARK   77  A    between atoms: _159  and  _160
REMARK   78  A    between atoms: _160  and  _161
REMARK   79  A    between atoms: _160  and  _163
REMARK   80  A    between atoms: _166  and  _167
REMARK   81  A    between atoms: _167  and  _170
REMARK   82  A    between atoms: _170  and  _171
REMARK   83  A    between atoms: _181  and  _183
REMARK   84  A    between atoms: _183  and  _184
REMARK   85  A    between atoms: _189  and  _194
REMARK   86  A    between atoms: _192  and  _195
REMARK   87  A    between atoms: _193  and  _194
REMARK   88  A    between atoms: _195  and  _196
REMARK   89  A    between atoms: _201  and  _202
REMARK   90  A    between atoms: _202  and  _203
REMARK   91  A    between atoms: _202  and  _205
REMARK   92  A    between atoms: _207  and  _208
REMARK   93  A    between atoms: _208  and  _209
REMARK   94  A    between atoms: _208  and  _211
REMARK   95  A    between atoms: _211  and  _212
REMARK   96  A    between atoms: _215  and  _216
REMARK   97  A    between atoms: _216  and  _217
REMARK   98  A    between atoms: _216  and  _219
REMARK   99  A    between atoms: _219  and  _220
REMARK  100  A    between atoms: _220  and  _221
REMARK  101  A    between atoms: _221  and  _222
REMARK  102  A    between atoms: _224  and  _225
REMARK  103  A    between atoms: _225  and  _226
REMARK  104  A    between atoms: _225  and  _228
REMARK  105  A    between atoms: _228  and  _229
REMARK  106  A    between atoms: _229  and  _230
REMARK  107  A    between atoms: _233  and  _234
REMARK  108  A    between atoms: _234  and  _235
REMARK  109  A    between atoms: _234  and  _237
REMARK  110  A    between atoms: _237  and  _238
REMARK  111  A    between atoms: _241  and  _242
REMARK  112  A    between atoms: _242  and  _243
REMARK  113  A    between atoms: _242  and  _245
REMARK  114  A    between atoms: _245  and  _246
REMARK  115  A    between atoms: _252  and  _253
REMARK  116  A    between atoms: _253  and  _254
REMARK  117  A    between atoms: _253  and  _256
REMARK  118  A    between atoms: _256  and  _257
REMARK  119  A    between atoms: _260  and  _261
REMARK  120  A    between atoms: _261  and  _262
REMARK  121  A    between atoms: _261  and  _264
REMARK  122  A    between atoms: _264  and  _265
REMARK  123  A    between atoms: _265  and  _266
REMARK  124  A    between atoms: _266  and  _267
REMARK  125  A    between atoms: _271  and  _272
REMARK  126  A    between atoms: _272  and  _273
REMARK  127  A    between atoms: _272  and  _275
REMARK  128  A    between atoms: _275  and  _276
REMARK  129  A    between atoms: _276  and  _277
REMARK  130  A    between atoms: _280  and  _281
REMARK  131  A    between atoms: _281  and  _282
REMARK  132  A    between atoms: _281  and  _284
REMARK  133  A    between atoms: _284  and  _285
REMARK  134  A    between atoms: _288  and  _289
REMARK  135  A    between atoms: _289  and  _292
REMARK  136  A    between atoms: _292  and  _293
REMARK  137  A    between atoms: _309  and  _310
REMARK  138  A    between atoms: _309  and  _312
REMARK  139  A    between atoms: _312  and  _313
REMARK  140  A    between atoms: _316  and  _317
REMARK  141  A    between atoms: _317  and  _318
REMARK  142  A    between atoms: _317  and  _320
REMARK  143  A    between atoms: _322  and  _323
REMARK  144  A    between atoms: _323  and  _324
REMARK  145  A    between atoms: _323  and  _326
REMARK  146  A    between atoms: _328  and  _329
REMARK  147  A    between atoms: _329  and  _330
REMARK  148  A    between atoms: _329  and  _332
REMARK  149  A    between atoms: _332  and  _333
REMARK  150  A    between atoms: _336  and  _337
REMARK  151  A    between atoms: _337  and  _338
REMARK  152  A    between atoms: _341  and  _342
REMARK  153  A    between atoms: _342  and  _343
REMARK  154  A    between atoms: _342  and  _345
REMARK  155  A    between atoms: _345  and  _346
REMARK  156  A    between atoms: _349  and  _350
REMARK  157  A    between atoms: _350  and  _351
REMARK  158  A    between atoms: _350  and  _353
REMARK  159  A    between atoms: _353  and  _354
REMARK  160  A    between atoms: _357  and  _358
REMARK  161  A    between atoms: _358  and  _359
REMARK  162  A    between atoms: _358  and  _361
REMARK  163  A    between atoms: _361  and  _362
REMARK  164  A    between atoms: _362  and  _363
REMARK  165  A    between atoms: _363  and  _364
REMARK  166  A    between atoms: _366  and  _367
REMARK  167  A    between atoms: _367  and  _368
REMARK  168  A    between atoms: _367  and  _370
REMARK  169  A    between atoms: _370  and  _371
REMARK  170  A    between atoms: _374  and  _375
REMARK  171  A    between atoms: _375  and  _376
REMARK  172  A    between atoms: _375  and  _378
REMARK  173  A    between atoms: _378  and  _379
REMARK  174  A    between atoms: _379  and  _380
REMARK  175  A    between atoms: _380  and  _381
REMARK  176  A    between atoms: _385  and  _386
REMARK  177  A    between atoms: _386  and  _387
REMARK  178  A    between atoms: _386  and  _389
REMARK  179  A    between atoms: _389  and  _390
REMARK  180  A    between atoms: _397  and  _398
REMARK  181  A    between atoms: _398  and  _399
REMARK  182  A    between atoms: _398  and  _401
REMARK  183  A    between atoms: _401  and  _402
REMARK  184  A    between atoms: _402  and  _403
REMARK  185  A    between atoms: _406  and  _407
REMARK  186  A    between atoms: _407  and  _408
REMARK  187  A    between atoms: _407  and  _410
REMARK  188  A    between atoms: _412  and  _413
REMARK  189  A    between atoms: _413  and  _414
REMARK  190  A    between atoms: _413  and  _416
REMARK  191  A    between atoms: _416  and  _417
REMARK  192  A    between atoms: _420  and  _421
REMARK  193  A    between atoms: _421  and  _422
REMARK  194  A    between atoms: _421  and  _424
REMARK  195  A    between atoms: _427  and  _428
REMARK  196  A    between atoms: _428  and  _429
REMARK  197  A    between atoms: _428  and  _431
REMARK  198  A    between atoms: _431  and  _432
REMARK  199  A    between atoms: _436  and  _437
REMARK  200  A    between atoms: _442  and  _443
REMARK  201  A    between atoms: _443  and  _444
REMARK  202  A    between atoms: _443  and  _446
REMARK  203  A    between atoms: _448  and  _449
REMARK  204  A    between atoms: _449  and  _450
REMARK  205  A    between atoms: _449  and  _452
REMARK  206  A    between atoms: _452  and  _453
REMARK  207  A    between atoms: _453  and  _454
REMARK  208  A    between atoms: _454  and  _455
REMARK  209  A    between atoms: _457  and  _458
REMARK  210  A    between atoms: _458  and  _459
REMARK  211  A    between atoms: _458  and  _461
REMARK  212  A    between atoms: _461  and  _462
REMARK  213  A    between atoms: _465  and  _466
REMARK  214  A    between atoms: _466  and  _467
REMARK  215  A    between atoms: _466  and  _469
REMARK  216  A    between atoms: _469  and  _470
REMARK  217  A    between atoms: _473  and  _474
REMARK  218  A    between atoms: _474  and  _475
REMARK  219  A    between atoms: _474  and  _477
REMARK  220  A    between atoms: _479  and  _480
REMARK  221  A    between atoms: _480  and  _481
REMARK  222  A    between atoms: _483  and  _484
REMARK  223  A    between atoms: _484  and  _485
REMARK  224  A    between atoms: _484  and  _487
REMARK  225  A    between atoms: _487  and  _488
REMARK  226  A    between atoms: _488  and  _489
REMARK  227  A    between atoms: _489  and  _490
REMARK  228  A    between atoms: _492  and  _493
REMARK  229  A    between atoms: _493  and  _494
REMARK  230  A    between atoms: _493  and  _496
REMARK  231  A    between atoms: _496  and  _497
REMARK  232  A    between atoms: _497  and  _498
REMARK  233  A    between atoms: _501  and  _502
REMARK  234  A    between atoms: _502  and  _503
REMARK  235  A    between atoms: _502  and  _505
REMARK  236  A    between atoms: _505  and  _506
REMARK  237  A    between atoms: _509  and  _510
REMARK  238  A    between atoms: _510  and  _511
REMARK  239  A    between atoms: _510  and  _513
REMARK  240  A    between atoms: _513  and  _514
REMARK  241  A    between atoms: _519  and  _520
REMARK  242  A    between atoms: _520  and  _521
REMARK  243  A    between atoms: _520  and  _523
REMARK  244  A    between atoms: _523  and  _524
REMARK  245  A    between atoms: _527  and  _528
REMARK  246  A    between atoms: _528  and  _529
REMARK  247  A    between atoms: _528  and  _531
REMARK  248  A    between atoms: _531  and  _532
REMARK  249  A    between atoms: _535  and  _536
REMARK  250  A    between atoms: _536  and  _537
REMARK  251  A    between atoms: _536  and  _539
REMARK  252  A    between atoms: _539  and  _540
REMARK  253  A    between atoms: _543  and  _544
REMARK  254  A    between atoms: _544  and  _545
REMARK  255  A    between atoms: _544  and  _547
REMARK  256  A    between atoms: _547  and  _548
REMARK  257  A    between atoms: _552  and  _553
REMARK  258  A    between atoms: _558  and  _559
REMARK  259  A    between atoms: _559  and  _560
REMARK  260  A    between atoms: _559  and  _562
REMARK  261  A    between atoms: _562  and  _563
REMARK  262  A    between atoms: _566  and  _567
REMARK  263  A    between atoms: _567  and  _568
REMARK  264  A    between atoms: _567  and  _570
REMARK  265  A    between atoms: _570  and  _571
REMARK  266  A    between atoms: _571  and  _572
REMARK  267  A    between atoms: _572  and  _573
REMARK  268  A    between atoms: _575  and  _576
REMARK  269  A    between atoms: _576  and  _577
REMARK  270  A    between atoms: _576  and  _579
REMARK  271  A    between atoms: _579  and  _580
REMARK  272  A    between atoms: _580  and  _581
REMARK  273  A    between atoms: _584  and  _585
REMARK  274  A    between atoms: _585  and  _586
REMARK  275  A    between atoms: _585  and  _588
REMARK  276  A    between atoms: _588  and  _589
REMARK  277  A    between atoms: _592  and  _593
REMARK  278  A    between atoms: _593  and  _594
REMARK  279  A    between atoms: _593  and  _596
REMARK  280  A    between atoms: _596  and  _597
REMARK  281  A    between atoms: _597  and  _598
REMARK  282  A    between atoms: _598  and  _599
REMARK  283  A    between atoms: _603  and  _604
REMARK  284  A    between atoms: _604  and  _605
REMARK  285  A    between atoms: _604  and  _607
REMARK  286  A    between atoms: _610  and  _611
REMARK  287  A    between atoms: _611  and  _612
REMARK  288  A    between atoms: _611  and  _614
REMARK  289  A    between atoms: _614  and  _615
REMARK  290  A    between atoms: _618  and  _619
REMARK  291  A    between atoms: _619  and  _620
REMARK  292  A    between atoms: _619  and  _622
REMARK  293  A    between atoms: _625  and  _626
REMARK  294  A    between atoms: _626  and  _627
REMARK  295  A    between atoms: _626  and  _629
REMARK  296  A    between atoms: _629  and  _630
REMARK  297  A    between atoms: _633  and  _634
REMARK  298  A    between atoms: _634  and  _635
REMARK  299  A    between atoms: _634  and  _637
REMARK  300  A    between atoms: _640  and  _641
REMARK  301  A    between atoms: _641  and  _642
REMARK  302  A    between atoms: _641  and  _644
REMARK  303  A    between atoms: _644  and  _645
REMARK  304  A    between atoms: _648  and  _649
REMARK  305  A    between atoms: _649  and  _650
REMARK  306  A    between atoms: _649  and  _652
REMARK  307  A    between atoms: _655  and  _656
REMARK  308  A    between atoms: _656  and  _657
REMARK  309  A    between atoms: _659  and  _660
REMARK  310  A    between atoms: _660  and  _661
REMARK  311  A    between atoms: _660  and  _663
REMARK  312  A    between atoms: _663  and  _664
REMARK  313  A    between atoms: _667  and  _668
REMARK  314  A    between atoms: _668  and  _669
REMARK  315  A    between atoms: _671  and  _672
REMARK  316  A    between atoms: _672  and  _673
REMARK  317  A    between atoms: _672  and  _675
REMARK  318  A    between atoms: _675  and  _676
REMARK  319  A    between atoms: _676  and  _677
REMARK  320  A    between atoms: _679  and  _680
REMARK  321  A    between atoms: _680  and  _681
REMARK  322  A    between atoms: _680  and  _683
REMARK  323  A    between atoms: _686  and  _687
REMARK  324  A    between atoms: _687  and  _688
REMARK  325  A    between atoms: _687  and  _690
REMARK  326  A    between atoms: _690  and  _691
REMARK  327  A    between atoms: _691  and  _692
REMARK  328  A    between atoms: _692  and  _693
REMARK  329  A    between atoms: _695  and  _696
REMARK  330  A    between atoms: _696  and  _697
REMARK  331  A    between atoms: _700  and  _701
REMARK  332  A    between atoms: _701  and  _702
REMARK  333  A    between atoms: _701  and  _704
REMARK  334  A    between atoms: _704  and  _705
REMARK  335  A    between atoms: _708  and  _709
REMARK  336  A    between atoms: _709  and  _710
REMARK  337  A    between atoms: _709  and  _712
REMARK  338  A    between atoms: _712  and  _713
REMARK  339  A    between atoms: _716  and  _717
REMARK  340  A    between atoms: _717  and  _720
REMARK  341  A    between atoms: _720  and  _721
REMARK  342  A    between atoms: _733  and  _734
REMARK  343  A    between atoms: _733  and  _735
REMARK  344  A    between atoms: _741  and  _744
REMARK  345  A    between atoms: _744  and  _745
REMARK  346  A    between atoms: _758  and  _759
REMARK  347  A    between atoms: _758  and  _761
REMARK  348  A    between atoms: _759  and  _760
REMARK  349  A    between atoms: _765  and  _766
REMARK  350  A    between atoms: _768  and  _769
REMARK  351  A    between atoms: _769  and  _770
REMARK  352  A    between atoms: _769  and  _772
REMARK  353  A    between atoms: _775  and  _776
REMARK  354  A    between atoms: _776  and  _777
REMARK  355  A    between atoms: _776  and  _779
REMARK  356  A    between atoms: _779  and  _780
REMARK  357  A    between atoms: _783  and  _784
REMARK  358  A    between atoms: _784  and  _785
REMARK  359  A    between atoms: _788  and  _789
REMARK  360  A    between atoms: _789  and  _790
REMARK  361  A    between atoms: _789  and  _792
REMARK  362  A    between atoms: _792  and  _793
REMARK  363  A    between atoms: _793  and  _794
REMARK  364  A    between atoms: _794  and  _795
REMARK  365  A    between atoms: _797  and  _798
REMARK  366  A    between atoms: _798  and  _799
REMARK  367  A    between atoms: _798  and  _801
REMARK  368  A    between atoms: _803  and  _804
REMARK  369  A    between atoms: _804  and  _805
REMARK  370  A    between atoms: _807  and  _808
REMARK  371  A    between atoms: _808  and  _809
REMARK  372  A    between atoms: _808  and  _811
REMARK  373  A    between atoms: _814  and  _815
REMARK  374  A    between atoms: _815  and  _816
REMARK  375  A    between atoms: _815  and  _818
REMARK  376  A    between atoms: _818  and  _819
REMARK  377  A    between atoms: _819  and  _820
REMARK  378  A    between atoms: _820  and  _821
REMARK  379  A    between atoms: _823  and  _824
REMARK  380  A    between atoms: _824  and  _825
REMARK  381  A    between atoms: _828  and  _829
REMARK  382  A    between atoms: _829  and  _830
REMARK  383  A    between atoms: _829  and  _832
REMARK  384  A    between atoms: _832  and  _833
REMARK  385  A    between atoms: _839  and  _840
REMARK  386  A    between atoms: _840  and  _841
REMARK  387  A    between atoms: _840  and  _843
REMARK  388  A    between atoms: _843  and  _844
REMARK  389  A    between atoms: _844  and  _845
REMARK  390  A    between atoms: _847  and  _848
REMARK  391  A    between atoms: _848  and  _849
REMARK  392  A    between atoms: _848  and  _851
REMARK  393  A    between atoms: _851  and  _852
REMARK  394  A    between atoms: _852  and  _853
REMARK  395  A    between atoms: _856  and  _857
REMARK  396  A    between atoms: _857  and  _858
REMARK  397  A    between atoms: _861  and  _862
REMARK  398  A    between atoms: _862  and  _863
REMARK  399  A    between atoms: _862  and  _865
REMARK  400  A    between atoms: _865  and  _866
REMARK  401  A    between atoms: _869  and  _870
REMARK  402  A    between atoms: _870  and  _871
REMARK  403  A    between atoms: _870  and  _873
REMARK  404  A    between atoms: _873  and  _874
REMARK  405  A    between atoms: _874  and  _875
REMARK  406  A    between atoms: _878  and  _879
REMARK  407  A    between atoms: _879  and  _880
REMARK  408  A    between atoms: _883  and  _884
REMARK  409  A    between atoms: _884  and  _885
REMARK  410  A    between atoms: _887  and  _888
REMARK  411  A    between atoms: _888  and  _889
REMARK  412  A    between atoms: _892  and  _893
REMARK  413  A    between atoms: _893  and  _894
REMARK  414  A    between atoms: _893  and  _896
REMARK  415  A    between atoms: _896  and  _897
REMARK  416  A    between atoms: _900  and  _901
REMARK  417  A    between atoms: _901  and  _902
REMARK  418  A    between atoms: _901  and  _904
REMARK  419  A    between atoms: _904  and  _905
REMARK  420  A    between atoms: _908  and  _909
REMARK  421  A    between atoms: _909  and  _910
REMARK  422  A    between atoms: _909  and  _912
REMARK  423  A    between atoms: _914  and  _915
REMARK  424  A    between atoms: _915  and  _916
REMARK  425  A    between atoms: _915  and  _918
REMARK  426  A    between atoms: _918  and  _919
REMARK  427  A    between atoms: _919  and  _920
REMARK  428  A    between atoms: _922  and  _923
REMARK  429  A    between atoms: _923  and  _924
REMARK  430  A    between atoms: _923  and  _926
REMARK  431  A    between atoms: _926  and  _927
REMARK  432  A    between atoms: _930  and  _931
REMARK  433  A    between atoms: _931  and  _932
REMARK  434  A    between atoms: _934  and  _935
REMARK  435  A    between atoms: _935  and  _936
REMARK  436  A    between atoms: _935  and  _938
REMARK  437  A    between atoms: _938  and  _939
REMARK  438  A    between atoms: _939  and  _940
REMARK  439  A    between atoms: _943  and  _944
REMARK  440  A    between atoms: _944  and  _945
REMARK  441  A    between atoms: _944  and  _947
REMARK  442  A    between atoms: _947  and  _948
REMARK  443  A    between atoms: _954  and  _955
REMARK  444  A    between atoms: _955  and  _956
REMARK  445  A    between atoms: _958  and  _959
REMARK  446  A    between atoms: _959  and  _960
REMARK  447  A    between atoms: _959  and  _962
REMARK  448  A    between atoms: _965  and  _966
REMARK  449  A    between atoms: _966  and  _967
REMARK  450  A    between atoms: _969  and  _970
REMARK  451  A    between atoms: _970  and  _971
REMARK  452  A    between atoms: _970  and  _973
REMARK  453  A    between atoms: _973  and  _974
REMARK  454  A    between atoms: _980  and  _981
REMARK  455  A    between atoms: _981  and  _982
REMARK  456  A    between atoms: _981  and  _984
REMARK  457  A    between atoms: _984  and  _985
REMARK  458  A    between atoms: _992  and  _993
REMARK  459  A    between atoms: _993  and  _994
REMARK  460  A    between atoms: _993  and  _996
REMARK  461  A    between atoms: _998  and  _999
REMARK  462  A    between atoms: _999  and  _1000
REMARK  463  A    between atoms: _1003  and  _1004
REMARK  464  A    between atoms: _1004  and  _1005
REMARK  465  A    between atoms: _1004  and  _1007
REMARK  466  A    between atoms: _1007  and  _1008
REMARK  467  A    between atoms: _1015  and  _1016
REMARK  468  A    between atoms: _1016  and  _1017
REMARK  469  A    between atoms: _1016  and  _1019
REMARK  470  A    between atoms: _1019  and  _1020
REMARK  471  A    between atoms: _1023  and  _1024
REMARK  472  A    between atoms: _1024  and  _1025
REMARK  473  A    between atoms: _1024  and  _1027
REMARK  474  A    between atoms: _1030  and  _1031
REMARK  475  A    between atoms: _1031  and  _1032
REMARK  476  A    between atoms: _1035  and  _1036
REMARK  477  A    between atoms: _1036  and  _1037
REMARK  478  A    between atoms: _1036  and  _1039
REMARK  479  A    between atoms: _1039  and  _1040
REMARK  480  A    between atoms: _1040  and  _1041
REMARK  481  A    between atoms: _1044  and  _1045
REMARK  482  A    between atoms: _1045  and  _1046
REMARK  483  A    between atoms: _1045  and  _1048
REMARK  484  A    between atoms: _1048  and  _1049
REMARK  485  A    between atoms: _1049  and  _1050
REMARK  486  A    between atoms: _1050  and  _1051
REMARK  487  A    between atoms: _1053  and  _1054
REMARK  488  A    between atoms: _1054  and  _1055
REMARK  489  A    between atoms: _1054  and  _1057
REMARK  490  A    between atoms: _1060  and  _1061
REMARK  491  A    between atoms: _1061  and  _1062
REMARK  492  A    between atoms: _1061  and  _1064
REMARK  493  A    between atoms: _1067  and  _1068
REMARK  494  A    between atoms: _1068  and  _1069
REMARK  495  A    between atoms: _1068  and  _1071
REMARK  496  A    between atoms: _1074  and  _1075
REMARK  497  A    between atoms: _1075  and  _1076
REMARK  498  A    between atoms: _1075  and  _1078
REMARK  499  A    between atoms: _1078  and  _1079
REMARK  500  A    between atoms: _1082  and  _1083
REMARK  501  A    between atoms: _1083  and  _1084
REMARK  502  A    between atoms: _1083  and  _1086
REMARK  503  A    between atoms: _1089  and  _1090
REMARK  504  A    between atoms: _1090  and  _1091
REMARK  505  A    between atoms: _1090  and  _1093
REMARK  506  A    between atoms: _1093  and  _1094
REMARK  507  A    between atoms: _1094  and  _1095
REMARK  508  A    between atoms: _1095  and  _1096
REMARK  509  A    between atoms: _1098  and  _1099
REMARK  510  A    between atoms: _1099  and  _1100
REMARK  511  A    between atoms: _1099  and  _1102
REMARK  512  A    between atoms: _1102  and  _1103
REMARK  513  A    between atoms: _1108  and  _1109
REMARK  514  A    between atoms: _1109  and  _1110
REMARK  515  A    between atoms: _1109  and  _1112
REMARK  516  A    between atoms: _1112  and  _1113
REMARK  517  A    between atoms: _1116  and  _1117
REMARK  518  A    between atoms: _1117  and  _1118
REMARK  519  A    between atoms: _1117  and  _1120
REMARK  520  A    between atoms: _1120  and  _1121
REMARK  521  A    between atoms: _1124  and  _1125
REMARK  522  A    between atoms: _1125  and  _1126
REMARK  523  A    between atoms: _1125  and  _1128
REMARK  524  A    between atoms: _1128  and  _1129
REMARK  525  A    between atoms: _1132  and  _1133
REMARK  526  A    between atoms: _1133  and  _1134
REMARK  527  A    between atoms: _1133  and  _1136
REMARK  528  A    between atoms: _1136  and  _1137
REMARK  529  A    between atoms: _1137  and  _1138
REMARK  530  A    between atoms: _1141  and  _1142
REMARK  531  A    between atoms: _1142  and  _1143
REMARK  532  A    between atoms: _1142  and  _1145
REMARK  533  A    between atoms: _1145  and  _1146
REMARK  534  A    between atoms: _1146  and  _1147
REMARK  535  A    between atoms: _1150  and  _1151
REMARK  536  A    between atoms: _1151  and  _1152
REMARK  537  A    between atoms: _1151  and  _1154
REMARK  538  A    between atoms: _1154  and  _1155
REMARK  539  A    between atoms: _1162  and  _1163
REMARK  540  A    between atoms: _1163  and  _1164
REMARK  541  A    between atoms: _1167  and  _1168
REMARK  542  A    between atoms: _1168  and  _1169
REMARK  543  A    between atoms: _1168  and  _1171
REMARK  544  A    between atoms: _1171  and  _1172
REMARK  545  A    between atoms: _1181  and  _1182
REMARK  546  A    between atoms: _1182  and  _1183
REMARK  547  A    between atoms: _1182  and  _1185
REMARK  548  A    between atoms: _1185  and  _1186
REMARK  549  A    between atoms: _1186  and  _1187
REMARK  550  A    between atoms: _1190  and  _1191
REMARK  551  A    between atoms: _1191  and  _1192
REMARK  552  A    between atoms: _1191  and  _1194
REMARK  553  A    between atoms: _1196  and  _1197
REMARK  554  A    between atoms: _1197  and  _1198
REMARK  555  A    between atoms: _1197  and  _1200
REMARK  556  A    between atoms: _1202  and  _1203
REMARK  557  A    between atoms: _1203  and  _1204
REMARK  558  A    between atoms: _1207  and  _1208
REMARK  559  A    between atoms: _1208  and  _1209
REMARK  560  A    between atoms: _1211  and  _1212
REMARK  561  A    between atoms: _1212  and  _1213
REMARK  562  A    between atoms: _1215  and  _1216
REMARK  563  A    between atoms: _1216  and  _1217
REMARK  564  A    between atoms: _1216  and  _1219
REMARK  565  A    between atoms: _1221  and  _1222
REMARK  566  A    between atoms: _1222  and  _1223
REMARK  567  A    between atoms: _1222  and  _1225
REMARK  568  A    between atoms: _1225  and  _1226
REMARK  569  A    between atoms: _1232  and  _1233
REMARK  570  A    between atoms: _1233  and  _1234
REMARK  571  A    between atoms: _1233  and  _1236
REMARK  572  A    between atoms: _1239  and  _1240
REMARK  573  A    between atoms: _1240  and  _1241
REMARK  574  A    between atoms: _1240  and  _1243
REMARK  575  A    between atoms: _1247  and  _1249
REMARK  576  A    between atoms: _1247  and  _1252
REMARK  577  A    between atoms: _1251  and  _1252
REMARK  578  A    between atoms: _1251  and  _1254
REMARK  579  A    between atoms: _1253  and  _1254
REMARK  580  A    between atoms: _1253  and  _1256
REMARK  581  A    between atoms: _1254  and  _1255
REMARK  582  A    between atoms: _1255  and  _1257
REMARK  583  A    between atoms: _1256  and  _1258
REMARK  584  A    between atoms: _1265  and  _1266
REMARK  585  A    between atoms: _1266  and  _1267
REMARK  586  A    between atoms: _1266  and  _1269
REMARK  587  A    between atoms: _1272  and  _1273
REMARK  588  A    between atoms: _1273  and  _1274
REMARK  589  A    between atoms: _1273  and  _1276
REMARK  590  A    between atoms: _1276  and  _1277
REMARK  591  A    between atoms: _1280  and  _1281
REMARK  592  A    between atoms: _1281  and  _1282
REMARK  593  A    between atoms: _1281  and  _1284
REMARK  594  A    between atoms: _1287  and  _1288
REMARK  595  A    between atoms: _1288  and  _1289
REMARK  596  A    between atoms: _1291  and  _1292
REMARK  597  A    between atoms: _1292  and  _1293
REMARK  598  A    between atoms: _1292  and  _1295
REMARK  599  A    between atoms: _1295  and  _1296
REMARK  600  A    between atoms: _1296  and  _1297
REMARK  601  A    between atoms: _1301  and  _1302
REMARK  602  A    between atoms: _1307  and  _1308
REMARK  603  A    between atoms: _1308  and  _1309
REMARK  604  A    between atoms: _1308  and  _1311
REMARK  605  A    between atoms: _1311  and  _1312
REMARK  606  A    between atoms: _1312  and  _1313
REMARK  607  A    between atoms: _1315  and  _1316
REMARK  608  A    between atoms: _1316  and  _1317
REMARK  609  A    between atoms: _1319  and  _1320
REMARK  610  A    between atoms: _1320  and  _1321
REMARK  611  A    between atoms: _1320  and  _1323
REMARK  612  A    between atoms: _1323  and  _1324
REMARK  613  A    between atoms: _1324  and  _1325
REMARK  614  A    between atoms: _1325  and  _1326
REMARK  615  A    between atoms: _1330  and  _1331
REMARK  616  A    between atoms: _1331  and  _1332
REMARK  617  A    between atoms: _1334  and  _1335
REMARK  618  A    between atoms: _1335  and  _1336
REMARK  619  A    between atoms: _1335  and  _1338
REMARK  620  A    between atoms: _1341  and  _1342
REMARK  621  A    between atoms: _1342  and  _1343
REMARK  622  A    between atoms: _1342  and  _1345
REMARK  623  A    between atoms: _1345  and  _1346
REMARK  624  A    between atoms: _1346  and  _1347
REMARK  625  A    between atoms: _1347  and  _1348
REMARK  626  A    between atoms: _1350  and  _1351
REMARK  627  A    between atoms: _1351  and  _1352
REMARK  628  A    between atoms: _1351  and  _1354
REMARK  629  A    between atoms: _1357  and  _1358
REMARK  630  A    between atoms: _1358  and  _1359
REMARK  631  A    between atoms: _1358  and  _1361
REMARK  632  A    between atoms: _1361  and  _1362
REMARK  633  A    between atoms: _1365  and  _1366
REMARK  634  A    between atoms: _1366  and  _1367
REMARK  635  A    between atoms: _1366  and  _1369
REMARK  636  A    between atoms: _1369  and  _1370
REMARK  637  A    between atoms: _1373  and  _1374
REMARK  638  A    between atoms: _1374  and  _1375
REMARK  639  A    between atoms: _1374  and  _1377
REMARK  640  A    between atoms: _1377  and  _1378
REMARK  641  A    between atoms: _1383  and  _1384
REMARK  642  A    between atoms: _1384  and  _1385
REMARK  643  A    between atoms: _1384  and  _1387
REMARK  644  A    between atoms: _1387  and  _1388
REMARK  645  A    between atoms: _1391  and  _1392
REMARK  646  A    between atoms: _1392  and  _1393
REMARK  647  A    between atoms: _1392  and  _1395
REMARK  648  A    between atoms: _1395  and  _1396
REMARK  649  A    between atoms: _1396  and  _1397
REMARK  650  A    between atoms: _1397  and  _1398
REMARK  651  A    between atoms: _1400  and  _1401
REMARK  652  A    between atoms: _1401  and  _1402
REMARK  653  A    between atoms: _1401  and  _1404
REMARK  654  A    between atoms: _1404  and  _1405
REMARK  655  A    between atoms: _1405  and  _1406
REMARK  656  A    between atoms: _1409  and  _1410
REMARK  657  A    between atoms: _1410  and  _1411
REMARK  658  A    between atoms: _1410  and  _1413
REMARK  659  A    between atoms: _1413  and  _1414
REMARK  660  A    between atoms: _1417  and  _1418
REMARK  661  A    between atoms: _1418  and  _1419
REMARK  662  A    between atoms: _1418  and  _1421
REMARK  663  A    between atoms: _1421  and  _1422
REMARK  664  A    between atoms: _1422  and  _1423
REMARK  665  A    between atoms: _1426  and  _1427
REMARK  666  A    between atoms: _1427  and  _1428
REMARK  667  A    between atoms: _1427  and  _1430
REMARK  668  A    between atoms: _1433  and  _1434
REMARK  669  A    between atoms: _1434  and  _1435
REMARK  670  A    between atoms: _1434  and  _1437
REMARK  671  A    between atoms: _1437  and  _1438
REMARK  672  A    between atoms: _1438  and  _1439
REMARK  673  A    between atoms: _1442  and  _1443
REMARK  674  A    between atoms: _1443  and  _1444
REMARK  675  A    between atoms: _1443  and  _1446
REMARK  676  A    between atoms: _1446  and  _1447
REMARK  677  A    between atoms: _1454  and  _1455
REMARK  678  A    between atoms: _1455  and  _1456
REMARK  679  A    between atoms: _1455  and  _1458
REMARK  680  A    between atoms: _1458  and  _1459
REMARK  681  A    between atoms: _1462  and  _1463
REMARK  682  A    between atoms: _1463  and  _1464
REMARK  683  A    between atoms: _1463  and  _1466
REMARK  684  A    between atoms: _1466  and  _1467
REMARK  685  A    between atoms: _1467  and  _1468
REMARK  686  A    between atoms: _1471  and  _1472
REMARK  687  A    between atoms: _1472  and  _1473
REMARK  688  A    between atoms: _1472  and  _1475
REMARK  689  A    between atoms: _1475  and  _1476
REMARK  690  A    between atoms: _1476  and  _1477
REMARK  691  A    between atoms: _1480  and  _1481
REMARK  692  A    between atoms: _1481  and  _1482
REMARK  693  A    between atoms: _1481  and  _1484
REMARK  694  A    between atoms: _1484  and  _1485
REMARK  695  A    between atoms: _1485  and  _1486
REMARK  696  A    between atoms: _1486  and  _1487
REMARK  697  A    between atoms: _1491  and  _1492
REMARK  698  A    between atoms: _1492  and  _1493
REMARK  699  A    between atoms: _1492  and  _1495
REMARK  700  A    between atoms: _1495  and  _1496
REMARK  701  A    between atoms: _1496  and  _1497
REMARK  702  A    between atoms: _1497  and  _1498
REMARK  703  A    between atoms: _1502  and  _1503
REMARK  704  A    between atoms: _1503  and  _1504
REMARK  705  A    between atoms: _1503  and  _1506
REMARK  706  A    between atoms: _1506  and  _1507
REMARK  707  A    between atoms: _1510  and  _1511
REMARK  708  A    between atoms: _1511  and  _1512
REMARK  709  A    between atoms: _1511  and  _1514
REMARK  710  A    between atoms: _1514  and  _1515
REMARK  711  A    between atoms: _1515  and  _1516
REMARK  712  A    between atoms: _1516  and  _1517
REMARK  713  A    between atoms: _1519  and  _1520
REMARK  714  A    between atoms: _1520  and  _1521
REMARK  715  A    between atoms: _1520  and  _1523
REMARK  716  A    between atoms: _1523  and  _1524
REMARK  717  A    between atoms: _1524  and  _1525
REMARK  718  A    between atoms: _1528  and  _1529
REMARK  719  A    between atoms: _1529  and  _1530
REMARK  720  A    between atoms: _1529  and  _1532
REMARK  721  A    between atoms: _1532  and  _1533
REMARK  722  A    between atoms: _1536  and  _1537
REMARK  723  A    between atoms: _1537  and  _1538
REMARK  724  A    between atoms: _1537  and  _1540
REMARK  725  A    between atoms: _1543  and  _1544
REMARK  726  A    between atoms: _1544  and  _1545
REMARK  727  A    between atoms: _1544  and  _1547
REMARK  728  A    between atoms: _1547  and  _1548
REMARK  729  A    between atoms: _1548  and  _1549
REMARK  730  A    between atoms: _1549  and  _1550
REMARK  731  A    between atoms: _1552  and  _1553
REMARK  732  A    between atoms: _1553  and  _1554
REMARK  733  A    between atoms: _1553  and  _1556
REMARK  734  A    between atoms: _1556  and  _1557
REMARK  735  A    between atoms: _1557  and  _1558
REMARK  736  A    between atoms: _1558  and  _1559
REMARK  737  A    between atoms: _1561  and  _1562
REMARK  738  A    between atoms: _1562  and  _1563
REMARK  739  A    between atoms: _1562  and  _1565
REMARK  740  A    between atoms: _1565  and  _1566
REMARK  741  A    between atoms: _1571  and  _1572
REMARK  742  A    between atoms: _1572  and  _1573
REMARK  743  A    between atoms: _1572  and  _1575
REMARK  744  A    between atoms: _1577  and  _1578
REMARK  745  A    between atoms: _1578  and  _1579
REMARK  746  A    between atoms: _1578  and  _1581
REMARK  747  A    between atoms: _1581  and  _1582
REMARK  748  A    between atoms: _1582  and  _1583
REMARK  749  A    between atoms: _1586  and  _1587
REMARK  750  A    between atoms: _1587  and  _1588
REMARK  751  A    between atoms: _1587  and  _1590
REMARK  752  A    between atoms: _1590  and  _1591
REMARK  753  A    between atoms: _1597  and  _1598
REMARK  754  A    between atoms: _1598  and  _1599
REMARK  755  A    between atoms: _1598  and  _1601
REMARK  756  A    between atoms: _1601  and  _1602
REMARK  757  A    between atoms: _1605  and  _1606
REMARK  758  A    between atoms: _1606  and  _1607
REMARK  759  A    between atoms: _1609  and  _1610
REMARK  760  A    between atoms: _1610  and  _1611
REMARK  761  A    between atoms: _1610  and  _1613
REMARK  762  A    between atoms: _1613  and  _1614
REMARK  763  A    between atoms: _1622  and  _1623
REMARK  764  A    between atoms: _1628  and  _1629
REMARK  765  A    between atoms: _1629  and  _1630
REMARK  766  A    between atoms: _1629  and  _1632
REMARK  767  A    between atoms: _1632  and  _1633
REMARK  768  A    between atoms: _1636  and  _1637
REMARK  769  A    between atoms: _1637  and  _1638
REMARK  770  A    between atoms: _1637  and  _1640
REMARK  771  A    between atoms: _1643  and  _1644
REMARK  772  A    between atoms: _1644  and  _1645
REMARK  773  A    between atoms: _1644  and  _1647
REMARK  774  A    between atoms: _1647  and  _1648
REMARK  775  A    between atoms: _1651  and  _1652
REMARK  776  A    between atoms: _1652  and  _1653
REMARK  777  A    between atoms: _1652  and  _1655
REMARK  778  A    between atoms: _1655  and  _1656
REMARK  779  A    between atoms: _1662  and  _1663
REMARK  780  A    between atoms: _1663  and  _1664
REMARK  781  A    between atoms: _1663  and  _1666
REMARK  782  A    between atoms: _1669  and  _1670
REMARK  783  A    between atoms: _1670  and  _1671
REMARK  784  A    between atoms: _1670  and  _1673
REMARK  785  A    between atoms: _1673  and  _1674
REMARK  786  A    between atoms: _1674  and  _1675
REMARK                            x       y       z     vdW  Elec       q    Type
REMARK                         _______ _______ _______ _____ _____    ______ ____
ROOT
ATOM      1  CA  TYR A  35       5.920  19.705  14.746  0.00  0.00    +0.177 C 
ENDROOT
BRANCH   1   2
ATOM      2  C   TYR A  35       6.091  19.824  13.241  0.00  0.00    +0.262 C 
ATOM      3  O   TYR A  35       6.726  20.781  12.792  0.00  0.00    -0.271 OA
ATOM      4  N   LEU A  36       5.420  18.954  12.472  0.00  0.00    -0.196 NA
BRANCH   4   5
ATOM      5  CA  LEU A  36       5.366  19.161  11.013  0.00  0.00    +0.173 C 
BRANCH   5   6
ATOM      6  C   LEU A  36       4.493  20.387  10.727  0.00  0.00    +0.262 C 
ATOM      7  N   VAL A  37       3.476  20.626  11.591  0.00  0.00    -0.196 NA
ATOM      8  O   LEU A  36       4.671  21.085   9.720  0.00  0.00    -0.271 OA
BRANCH   7   9
ATOM      9  CA  VAL A  37       2.498  21.695  11.314  0.00  0.00    +0.173 C 
BRANCH   9  10
ATOM     10  CB  VAL A  37       1.093  21.122  11.002  0.00  0.00    +0.029 C 
ATOM     11  CG2 VAL A  37       0.486  20.373  12.206  0.00  0.00    +0.002 C 
ATOM     12  CG1 VAL A  37       1.131  20.224   9.752  0.00  0.00    +0.002 C 
ENDBRANCH   9  10
BRANCH   9  13
ATOM     13  C   VAL A  37       2.399  22.772  12.390  0.00  0.00    +0.262 C 
ATOM     14  N   ALA A  38       2.890  22.468  13.600  0.00  0.00    -0.196 NA
ATOM     15  O   VAL A  37       1.833  23.839  12.131  0.00  0.00    -0.271 OA
BRANCH  14  16
ATOM     16  CA  ALA A  38       2.760  23.400  14.728  0.00  0.00    +0.173 C 
ATOM     17  CB  ALA A  38       2.208  22.673  15.950  0.00  0.00    +0.033 C 
BRANCH  16  18
ATOM     18  C   ALA A  38       4.046  24.077  15.091  0.00  0.00    +0.262 C 
ATOM     19  N   GLU A  39       3.963  25.373  15.419  0.00  0.00    -0.196 NA
ATOM     20  O   ALA A  38       5.082  23.400  15.185  0.00  0.00    -0.271 OA
BRANCH  19  21
ATOM     21  CA  GLU A  39       5.133  26.075  15.936  0.00  0.00    +0.173 C 
BRANCH  21  22
ATOM     22  C   GLU A  39       5.263  25.832  17.446  0.00  0.00    +0.262 C 
ATOM     23  N   LYS A  40       4.109  25.602  18.125  0.00  0.00    -0.196 NA
ATOM     24  O   GLU A  39       6.363  25.876  18.000  0.00  0.00    -0.271 OA
BRANCH  23  25
ATOM     25  CA  LYS A  40       4.071  25.331  19.561  0.00  0.00    +0.173 C 
BRANCH  25  26
ATOM     26  C   LYS A  40       2.996  24.280  19.790  0.00  0.00    +0.262 C 
ATOM     27  N   VAL A  41       3.241  23.362  20.737  0.00  0.00    -0.196 NA
ATOM     28  O   LYS A  40       1.990  24.290  19.081  0.00  0.00    -0.271 OA
BRANCH  27  29
ATOM     29  CA  VAL A  41       2.244  22.359  21.090  0.00  0.00    +0.173 C 
BRANCH  29  30
ATOM     30  CB  VAL A  41       2.698  20.948  20.700  0.00  0.00    +0.029 C 
ATOM     31  CG2 VAL A  41       1.657  19.899  21.131  0.00  0.00    +0.002 C 
ATOM     32  CG1 VAL A  41       2.946  20.849  19.196  0.00  0.00    +0.002 C 
ENDBRANCH  29  30
BRANCH  29  33
ATOM     33  C   VAL A  41       2.058  22.461  22.599  0.00  0.00    +0.262 C 
ATOM     34  O   VAL A  41       3.040  22.515  23.352  0.00  0.00    -0.271 OA
ATOM     35  N   THR A  42       0.778  22.506  23.038  0.00  0.00    -0.194 NA
BRANCH  35  36
ATOM     36  CA  THR A  42       0.444  22.464  24.455  0.00  0.00    +0.203 C 
BRANCH  36  37
ATOM     37  C   THR A  42      -0.349  21.173  24.689  0.00  0.00    +0.264 C 
ATOM     38  N   VAL A  43       0.018  20.380  25.697  0.00  0.00    -0.196 NA
ATOM     39  O   THR A  42      -1.290  20.915  23.931  0.00  0.00    -0.271 OA
BRANCH  38  40
ATOM     40  CA  VAL A  43      -0.669  19.139  26.021  0.00  0.00    +0.173 C 
BRANCH  40  41
ATOM     41  CB  VAL A  43       0.289  17.927  25.943  0.00  0.00    +0.029 C 
ATOM     42  CG2 VAL A  43      -0.419  16.649  26.374  0.00  0.00    +0.002 C 
ATOM     43  CG1 VAL A  43       0.884  17.763  24.549  0.00  0.00    +0.002 C 
ENDBRANCH  40  41
BRANCH  40  44
ATOM     44  C   VAL A  43      -1.246  19.313  27.405  0.00  0.00    +0.262 C 
ATOM     45  O   VAL A  43      -0.484  19.479  28.353  0.00  0.00    -0.271 OA
ATOM     46  N   ILE A  44      -2.574  19.308  27.532  0.00  0.00    -0.196 NA
BRANCH  46  47
ATOM     47  CA  ILE A  44      -3.247  19.387  28.837  0.00  0.00    +0.173 C 
BRANCH  47  48
ATOM     48  C   ILE A  44      -3.695  17.952  29.145  0.00  0.00    +0.262 C 
ATOM     49  N   THR A  45      -3.396  17.430  30.321  0.00  0.00    -0.194 NA
ATOM     50  O   ILE A  44      -4.320  17.339  28.273  0.00  0.00    -0.271 OA
BRANCH  49  51
ATOM     51  CA  THR A  45      -3.732  16.022  30.581  0.00  0.00    +0.203 C 
BRANCH  51  52
ATOM     52  CB  THR A  45      -2.546  15.124  30.131  0.00  0.00    +0.181 C 
ATOM     53  CG2 THR A  45      -1.349  15.254  31.039  0.00  0.00    +0.038 C 
ATOM     54  OG1 THR A  45      -2.980  13.750  30.098  0.00  0.00    -0.221 OA
ENDBRANCH  51  52
BRANCH  51  55
ATOM     55  C   THR A  45      -4.163  15.792  32.016  0.00  0.00    +0.264 C 
ATOM     56  O   THR A  45      -3.714  16.499  32.938  0.00  0.00    -0.271 OA
ATOM     57  N   LYS A  46      -5.017  14.775  32.207  0.00  0.00    -0.196 NA
BRANCH  57  58
ATOM     58  CA  LYS A  46      -5.471  14.401  33.536  0.00  0.00    +0.173 C 
BRANCH  58  59
ATOM     59  C   LYS A  46      -5.579  12.885  33.592  0.00  0.00    +0.262 C 
ATOM     60  N   HIS A  47      -4.789  12.273  34.456  0.00  0.00    -0.196 NA
ATOM     61  O   LYS A  46      -6.391  12.308  32.839  0.00  0.00    -0.271 OA
BRANCH  60  62
ATOM     62  CA  HIS A  47      -4.818  10.835  34.722  0.00  0.00    +0.179 C 
BRANCH  62  63
ATOM     63  C   HIS A  47      -5.532  10.655  36.071  0.00  0.00    +0.262 C 
ATOM     64  O   HIS A  47      -5.405  11.522  36.937  0.00  0.00    -0.271 OA
ATOM     65  N   ASN A  48      -6.241   9.540  36.275  0.00  0.00    -0.196 NA
BRANCH  65  66
ATOM     66  CA  ASN A  48      -6.946   9.322  37.562  0.00  0.00    +0.182 C 
BRANCH  66  67
ATOM     67  C   ASN A  48      -6.006   9.410  38.772  0.00  0.00    +0.262 C 
ATOM     68  O   ASN A  48      -6.467   9.804  39.853  0.00  0.00    -0.271 OA
ATOM     69  N   ASP A  49      -4.734   9.013  38.619  0.00  0.00    -0.196 NA
BRANCH  69  70
ATOM     70  CA  ASP A  49      -3.765   8.974  39.724  0.00  0.00    +0.184 C 
BRANCH  70  71
ATOM     71  C   ASP A  49      -2.956  10.266  39.939  0.00  0.00    +0.262 C 
ATOM     72  O   ASP A  49      -2.034  10.259  40.759  0.00  0.00    -0.271 OA
ATOM     73  N   ASP A  50      -3.290  11.352  39.232  0.00  0.00    -0.196 NA
BRANCH  73  74
ATOM     74  CA  ASP A  50      -2.536  12.611  39.374  0.00  0.00    +0.184 C 
BRANCH  74  75
ATOM     75  C   ASP A  50      -3.419  13.826  39.122  0.00  0.00    +0.262 C 
ATOM     76  N   GLU A  51      -2.827  15.037  39.214  0.00  0.00    -0.196 NA
ATOM     77  O   ASP A  50      -4.627  13.692  38.893  0.00  0.00    -0.271 OA
BRANCH  76  78
ATOM     78  CA  GLU A  51      -3.500  16.293  38.975  0.00  0.00    +0.173 C 
BRANCH  78  79
ATOM     79  C   GLU A  51      -3.478  16.677  37.486  0.00  0.00    +0.262 C 
ATOM     80  N   GLN A  52      -4.196  17.720  37.100  0.00  0.00    -0.196 NA
ATOM     81  O   GLU A  51      -2.812  15.991  36.692  0.00  0.00    -0.271 OA
BRANCH  80  82
ATOM     82  CA  GLN A  52      -4.228  18.203  35.736  0.00  0.00    +0.173 C 
BRANCH  82  83
ATOM     83  C   GLN A  52      -2.981  19.043  35.461  0.00  0.00    +0.262 C 
ATOM     84  O   GLN A  52      -2.687  19.999  36.191  0.00  0.00    -0.271 OA
ATOM     85  N   TYR A  53      -2.234  18.683  34.411  0.00  0.00    -0.196 NA
BRANCH  85  86
ATOM     86  CA  TYR A  53      -0.992  19.353  34.040  0.00  0.00    +0.177 C 
BRANCH  86  87
ATOM     87  C   TYR A  53      -1.023  19.845  32.615  0.00  0.00    +0.262 C 
ATOM     88  N   ALA A  54      -0.207  20.866  32.317  0.00  0.00    -0.196 NA
ATOM     89  O   TYR A  53      -1.782  19.321  31.789  0.00  0.00    -0.271 OA
BRANCH  88  90
ATOM     90  CA  ALA A  54       0.005  21.401  30.993  0.00  0.00    +0.173 C 
ATOM     91  CB  ALA A  54      -0.427  22.853  30.889  0.00  0.00    +0.033 C 
BRANCH  90  92
ATOM     92  C   ALA A  54       1.486  21.296  30.669  0.00  0.00    +0.262 C 
ATOM     93  O   ALA A  54       2.340  21.818  31.407  0.00  0.00    -0.271 OA
ATOM     94  N   TRP A  55       1.792  20.553  29.610  0.00  0.00    -0.196 NA
BRANCH  94  95
ATOM     95  CA  TRP A  55       3.131  20.443  29.023  0.00  0.00    +0.177 C 
BRANCH  95  96
ATOM     96  C   TRP A  55       3.134  21.391  27.837  0.00  0.00    +0.262 C 
ATOM     97  N   GLU A  56       4.288  22.002  27.519  0.00  0.00    -0.196 NA
ATOM     98  O   TRP A  55       2.111  21.549  27.155  0.00  0.00    -0.271 OA
BRANCH  97  99
ATOM     99  CA  GLU A  56       4.329  22.856  26.364  0.00  0.00    +0.173 C 
BRANCH  99 100
ATOM    100  C   GLU A  56       5.724  22.910  25.784  0.00  0.00    +0.262 C 
ATOM    101  O   GLU A  56       6.693  22.868  26.550  0.00  0.00    -0.271 OA
ATOM    102  N   SER A  57       5.829  23.029  24.444  0.00  0.00    -0.194 NA
BRANCH 102 103
ATOM    103  CA  SER A  57       7.148  23.231  23.840  0.00  0.00    +0.205 C 
BRANCH 103 104
ATOM    104  C   SER A  57       7.008  23.847  22.485  0.00  0.00    +0.264 C 
ATOM    105  N   SER A  58       7.916  24.795  22.194  0.00  0.00    -0.194 NA
ATOM    106  O   SER A  57       6.110  23.489  21.705  0.00  0.00    -0.271 OA
BRANCH 105 107
ATOM    107  CA  SER A  58       8.047  25.382  20.871  0.00  0.00    +0.205 C 
BRANCH 107 108
ATOM    108  C   SER A  58       9.355  24.837  20.286  0.00  0.00    +0.264 C 
ATOM    109  N   ALA A  59       9.777  23.622  20.725  0.00  0.00    -0.196 NA
ATOM    110  O   SER A  58       9.990  25.518  19.461  0.00  0.00    -0.271 OA
BRANCH 109 111
ATOM    111  CA  ALA A  59      11.023  22.990  20.287  0.00  0.00    +0.173 C 
ATOM    112  CB  ALA A  59      11.067  22.852  18.768  0.00  0.00    +0.033 C 
BRANCH 111 113
ATOM    113  C   ALA A  59      12.189  23.835  20.859  0.00  0.00    +0.262 C 
ATOM    114  O   ALA A  59      12.074  24.303  21.986  0.00  0.00    -0.271 OA
ATOM    115  N   GLY A  60      13.300  23.975  20.148  0.00  0.00    -0.194 NA
BRANCH 115 116
ATOM    116  CA  GLY A  60      14.392  24.758  20.725  0.00  0.00    +0.201 C 
BRANCH 116 117
ATOM    117  C   GLY A  60      15.102  24.089  21.891  0.00  0.00    +0.264 C 
ATOM    118  O   GLY A  60      15.875  24.743  22.603  0.00  0.00    -0.271 OA
ATOM    119  N   GLY A  61      14.842  22.801  22.116  0.00  0.00    -0.194 NA
BRANCH 119 120
ATOM    120  CA  GLY A  61      15.562  22.034  23.116  0.00  0.00    +0.201 C 
BRANCH 120 121
ATOM    121  C   GLY A  61      14.945  21.918  24.494  0.00  0.00    +0.264 C 
ATOM    122  O   GLY A  61      15.518  21.225  25.341  0.00  0.00    -0.271 OA
ATOM    123  N   UNK A  62      13.813  22.605  24.756  0.00  0.00    -0.194 NA
BRANCH 123 124
ATOM    124  C   UNK A  62      13.204  22.515  26.071  0.00  0.00    +0.205 C 
BRANCH 124 125
ATOM    125  C   UNK A  62      11.701  22.406  26.004  0.00  0.00    +0.264 C 
ATOM    126  N   UNK A  62      11.136  21.995  27.155  0.00  0.00    -0.196 NA
ATOM    127  O   UNK A  62      11.081  22.757  24.998  0.00  0.00    -0.271 OA
BRANCH 126 128
ATOM    128  C   UNK A  62       9.693  21.945  27.336  0.00  0.00    +0.177 C 
BRANCH 128 129
ATOM    129  C   UNK A  62       9.404  22.401  28.755  0.00  0.00    +0.262 C 
ATOM    130  O   UNK A  62      10.298  22.353  29.618  0.00  0.00    -0.271 OA
ATOM    131  N   UNK A  62       8.168  22.832  29.005  0.00  0.00    -0.194 NA
BRANCH 131 132
ATOM    132  C   UNK A  62       7.776  23.234  30.342  0.00  0.00    +0.203 C 
BRANCH 132 133
ATOM    133  C   UNK A  62       7.296  24.689  30.371  0.00  0.00    +0.181 C 
ATOM    134  C   UNK A  62       8.427  25.678  30.015  0.00  0.00    +0.038 C 
ATOM    135  O   UNK A  62       6.166  24.856  29.510  0.00  0.00    -0.221 OA
ENDBRANCH 132 133
BRANCH 132 136
ATOM    136  C   UNK A  62       6.653  22.344  30.823  0.00  0.00    +0.264 C 
ATOM    137  N   UNK A  62       6.511  22.223  32.145  0.00  0.00    -0.196 NA
ATOM    138  O   UNK A  62       5.877  21.803  30.004  0.00  0.00    -0.271 OA
BRANCH 137 139
ATOM    139  C   UNK A  62       5.377  21.531  32.750  0.00  0.00    +0.173 C 
BRANCH 139 140
ATOM    140  C   UNK A  62       4.879  22.434  33.894  0.00  0.00    +0.261 C 
ATOM    141  O   UNK A  62       5.713  22.943  34.680  0.00  0.00    -0.271 OA
ATOM    142  N   UNK A  62       3.546  22.626  33.986  0.00  0.00    -0.202 NA
ATOM    143  C   UNK A  62       2.953  23.341  35.115  0.00  0.00    +0.139 C 
ENDBRANCH 139 140
BRANCH 139 144
ATOM    144  C   UNK A  62       5.739  20.138  33.298  0.00  0.00    +0.029 C 
ATOM    145  C   UNK A  62       4.539  19.473  34.019  0.00  0.00    +0.002 C 
ATOM    146  C   UNK A  62       6.295  19.220  32.205  0.00  0.00    +0.002 C 
ENDBRANCH 139 144
ENDBRANCH 137 139
ENDBRANCH 132 136
ENDBRANCH 131 132
ENDBRANCH 128 129
BRANCH 128 147
ATOM    147  C   UNK A  62       9.149  20.501  27.085  0.00  0.00    +0.057 C 
BRANCH 147 148
ATOM    148  C   UNK A  62       9.641  19.418  28.010  0.00  0.00    -0.020 A 
ATOM    149  C   UNK A  62       8.935  19.095  29.173  0.00  0.00    -0.004 A 
ATOM    150  C   UNK A  62       9.381  18.076  30.013  0.00  0.00    -0.000 A 
ATOM    151  C   UNK A  62      10.495  17.347  29.677  0.00  0.00    -0.000 A 
ATOM    152  C   UNK A  62      11.203  17.649  28.524  0.00  0.00    -0.000 A 
ATOM    153  C   UNK A  62      10.788  18.694  27.708  0.00  0.00    -0.004 A 
ENDBRANCH 147 148
ENDBRANCH 128 147
ENDBRANCH 126 128
ENDBRANCH 124 125
BRANCH 124 154
ATOM    154  C   UNK A  62      13.583  23.738  26.908  0.00  0.00    +0.213 C 
ATOM    155  O   UNK A  62      12.995  24.902  26.356  0.00  0.00    -0.218 OA
ENDBRANCH 124 154
ENDBRANCH 123 124
ENDBRANCH 120 121
ENDBRANCH 119 120
ENDBRANCH 116 117
ENDBRANCH 115 116
ENDBRANCH 111 113
ENDBRANCH 109 111
ENDBRANCH 107 108
BRANCH 107 156
ATOM    156  CB  SER A  58       8.113  26.905  20.945  0.00  0.00    +0.213 C 
ATOM    157  OG  SER A  58       6.869  27.424  21.379  0.00  0.00    -0.218 OA
ENDBRANCH 107 156
ENDBRANCH 105 107
ENDBRANCH 103 104
BRANCH 103 158
ATOM    158  CB  SER A  57       7.912  21.924  23.723  0.00  0.00    +0.213 C 
ATOM    159  OG  SER A  57       9.201  22.115  23.141  0.00  0.00    -0.218 OA
ENDBRANCH 103 158
ENDBRANCH 102 103
ENDBRANCH  99 100
BRANCH  99 160
ATOM    160  CB  GLU A  56       3.859  24.275  26.741  0.00  0.00    +0.043 C 
BRANCH 160 161
ATOM    161  CG  GLU A  56       3.615  25.228  25.582  0.00  0.00    +0.116 C 
BRANCH 161 162
ATOM    162  CD  GLU A  56       2.850  26.439  26.071  0.00  0.00    +0.365 C 
ATOM    163  OE2 GLU A  56       3.434  27.227  26.852  0.00  0.00    -0.246 OA
ATOM    164  OE1 GLU A  56       1.632  26.526  25.783  0.00  0.00    -0.246 OA
ENDBRANCH 161 162
ENDBRANCH 160 161
ENDBRANCH  99 160
ENDBRANCH  97  99
ENDBRANCH  95  96
BRANCH  95 165
ATOM    165  CB  TRP A  55       3.310  18.992  28.542  0.00  0.00    +0.059 C 
BRANCH 165 166
ATOM    166  CG  TRP A  55       4.587  18.671  27.811  0.00  0.00    +0.001 A 
ATOM    167  CD1 TRP A  55       5.655  17.986  28.324  0.00  0.00    +0.095 A 
ATOM    168  NE1 TRP A  55       6.576  17.720  27.321  0.00  0.00    -0.244 NA
ATOM    169  CE2 TRP A  55       6.115  18.242  26.142  0.00  0.00    +0.081 A 
ATOM    170  CZ2 TRP A  55       6.686  18.217  24.859  0.00  0.00    +0.019 A 
ATOM    171  CH2 TRP A  55       6.011  18.845  23.861  0.00  0.00    +0.002 A 
ATOM    172  CZ3 TRP A  55       4.739  19.415  24.078  0.00  0.00    +0.000 A 
ATOM    173  CE3 TRP A  55       4.163  19.434  25.339  0.00  0.00    +0.001 A 
ATOM    174  CD2 TRP A  55       4.855  18.833  26.400  0.00  0.00    +0.015 A 
ENDBRANCH 165 166
ENDBRANCH  95 165
ENDBRANCH  94  95
ENDBRANCH  90  92
ENDBRANCH  88  90
ENDBRANCH  86  87
BRANCH  86 175
ATOM    175  CB  TYR A  53       0.165  18.379  34.188  0.00  0.00    +0.057 C 
BRANCH 175 176
ATOM    176  CG  TYR A  53       0.577  18.120  35.615  0.00  0.00    -0.020 A 
ATOM    177  CD2 TYR A  53       1.370  19.032  36.306  0.00  0.00    -0.001 A 
ATOM    178  CE2 TYR A  53       1.723  18.820  37.637  0.00  0.00    +0.042 A 
ATOM    179  CZ  TYR A  53       1.289  17.680  38.291  0.00  0.00    +0.196 A 
ATOM    180  OH  TYR A  53       1.661  17.473  39.598  0.00  0.00    -0.287 OA
ATOM    181  CE1 TYR A  53       0.497  16.756  37.627  0.00  0.00    +0.042 A 
ATOM    182  CD1 TYR A  53       0.151  16.977  36.290  0.00  0.00    -0.001 A 
ENDBRANCH 175 176
ENDBRANCH  86 175
ENDBRANCH  85  86
ENDBRANCH  82  83
BRANCH  82 183
ATOM    183  CB  GLN A  52      -5.495  18.984  35.450  0.00  0.00    +0.041 C 
BRANCH 183 184
ATOM    184  CG  GLN A  52      -5.683  19.359  33.976  0.00  0.00    +0.091 C 
BRANCH 184 185
ATOM    185  CD  GLN A  52      -7.103  19.735  33.659  0.00  0.00    +0.261 C 
ATOM    186  OE1 GLN A  52      -8.054  18.972  33.925  0.00  0.00    -0.272 OA
ATOM    187  NE2 GLN A  52      -7.292  20.887  33.025  0.00  0.00    -0.088 NA
ENDBRANCH 184 185
ENDBRANCH 183 184
ENDBRANCH  82 183
ENDBRANCH  80  82
ENDBRANCH  78  79
BRANCH  78 188
ATOM    188  CB  GLU A  51      -2.844  17.396  39.827  0.00  0.00    +0.043 C 
BRANCH 188 189
ATOM    189  CG  GLU A  51      -3.005  17.185  41.331  0.00  0.00    +0.116 C 
BRANCH 189 190
ATOM    190  CD  GLU A  51      -4.438  17.078  41.824  0.00  0.00    +0.365 C 
ATOM    191  OE2 GLU A  51      -4.874  15.948  42.140  0.00  0.00    -0.246 OA
ATOM    192  OE1 GLU A  51      -5.133  18.119  41.865  0.00  0.00    -0.246 OA
ENDBRANCH 189 190
ENDBRANCH 188 189
ENDBRANCH  78 188
ENDBRANCH  76  78
ENDBRANCH  74  75
BRANCH  74 193
ATOM    193  CB  ASP A  50      -1.304  12.586  38.416  0.00  0.00    +0.145 C 
BRANCH 193 194
ATOM    194  CG  ASP A  50      -0.076  13.378  38.865  0.00  0.00    +0.367 C 
ATOM    195  OD2 ASP A  50      -0.216  14.245  39.774  0.00  0.00    -0.246 OA
ATOM    196  OD1 ASP A  50       1.022  13.134  38.310  0.00  0.00    -0.246 OA
ENDBRANCH 193 194
ENDBRANCH  74 193
ENDBRANCH  73  74
ENDBRANCH  70  71
BRANCH  70 197
ATOM    197  CB  ASP A  49      -2.815   7.787  39.577  0.00  0.00    +0.145 C 
BRANCH 197 198
ATOM    198  CG  ASP A  49      -3.496   6.431  39.562  0.00  0.00    +0.367 C 
ATOM    199  OD2 ASP A  49      -4.655   6.338  40.036  0.00  0.00    -0.246 OA
ATOM    200  OD1 ASP A  49      -2.863   5.465  39.114  0.00  0.00    -0.246 OA
ENDBRANCH 197 198
ENDBRANCH  70 197
ENDBRANCH  69  70
ENDBRANCH  66  67
BRANCH  66 201
ATOM    201  CB  ASN A  48      -7.606   7.951  37.558  0.00  0.00    +0.120 C 
BRANCH 201 202
ATOM    202  CG  ASN A  48      -8.881   7.884  36.756  0.00  0.00    +0.263 C 
ATOM    203  OD1 ASN A  48      -9.524   8.880  36.465  0.00  0.00    -0.272 OA
ATOM    204  ND2 ASN A  48      -9.206   6.678  36.299  0.00  0.00    -0.088 NA
ENDBRANCH 201 202
ENDBRANCH  66 201
ENDBRANCH  65  66
ENDBRANCH  62  63
BRANCH  62 205
ATOM    205  CB  HIS A  47      -3.384  10.296  34.780  0.00  0.00    +0.079 C 
BRANCH 205 206
ATOM    206  CG  HIS A  47      -3.269   8.826  35.021  0.00  0.00    +0.082 A 
ATOM    207  CD2 HIS A  47      -3.454   8.147  36.176  0.00  0.00    +0.115 A 
ATOM    208  NE2 HIS A  47      -3.213   6.832  35.911  0.00  0.00    -0.221 NA
ATOM    209  CE1 HIS A  47      -2.868   6.743  34.615  0.00  0.00    +0.199 A 
ATOM    210  ND1 HIS A  47      -2.883   7.937  34.033  0.00  0.00    -0.227 NA
ENDBRANCH 205 206
ENDBRANCH  62 205
ENDBRANCH  60  62
ENDBRANCH  58  59
BRANCH  58 211
ATOM    211  CB  LYS A  46      -6.811  15.078  33.846  0.00  0.00    +0.031 C 
BRANCH 211 212
ATOM    212  CG  LYS A  46      -7.437  14.638  35.185  0.00  0.00    +0.004 C 
BRANCH 212 213
ATOM    213  CD  LYS A  46      -6.639  15.105  36.405  0.00  0.00    +0.021 C 
BRANCH 213 214
ATOM    214  CE  LYS A  46      -7.403  14.810  37.693  0.00  0.00    +0.109 C 
ATOM    215  NZ  LYS A  46      -7.300  13.377  38.048  0.00  0.00    -0.131 NA
ENDBRANCH 213 214
ENDBRANCH 212 213
ENDBRANCH 211 212
ENDBRANCH  58 211
ENDBRANCH  57  58
ENDBRANCH  51  55
ENDBRANCH  49  51
ENDBRANCH  47  48
BRANCH  47 216
ATOM    216  CB  ILE A  44      -4.478  20.314  28.777  0.00  0.00    +0.029 C 
ATOM    217  CG2 ILE A  44      -5.103  20.489  30.176  0.00  0.00    +0.002 C 
BRANCH 216 218
ATOM    218  CG1 ILE A  44      -4.180  21.668  28.080  0.00  0.00    +0.002 C 
ATOM    219  CD1 ILE A  44      -3.337  22.668  28.791  0.00  0.00    +0.000 C 
ENDBRANCH 216 218
ENDBRANCH  47 216
ENDBRANCH  46  47
ENDBRANCH  40  44
ENDBRANCH  38  40
ENDBRANCH  36  37
BRANCH  36 220
ATOM    220  CB  THR A  42      -0.424  23.654  24.832  0.00  0.00    +0.181 C 
ATOM    221  CG2 THR A  42      -0.690  23.742  26.349  0.00  0.00    +0.038 C 
ATOM    222  OG1 THR A  42       0.168  24.859  24.348  0.00  0.00    -0.221 OA
ENDBRANCH  36 220
ENDBRANCH  35  36
ENDBRANCH  29  33
ENDBRANCH  27  29
ENDBRANCH  25  26
BRANCH  25 223
ATOM    223  CB  LYS A  40       3.744  26.621  20.342  0.00  0.00    +0.031 C 
BRANCH 223 224
ATOM    224  CG  LYS A  40       3.715  26.413  21.870  0.00  0.00    +0.004 C 
BRANCH 224 225
ATOM    225  CD  LYS A  40       3.540  27.733  22.643  0.00  0.00    +0.021 C 
BRANCH 225 226
ATOM    226  CE  LYS A  40       2.220  28.424  22.423  0.00  0.00    +0.109 C 
ATOM    227  NZ  LYS A  40       2.223  29.796  23.007  0.00  0.00    -0.131 NA
ENDBRANCH 225 226
ENDBRANCH 224 225
ENDBRANCH 223 224
ENDBRANCH  25 223
ENDBRANCH  23  25
ENDBRANCH  21  22
BRANCH  21 228
ATOM    228  CB  GLU A  39       5.108  27.576  15.614  0.00  0.00    +0.043 C 
BRANCH 228 229
ATOM    229  CG  GLU A  39       3.862  28.332  16.023  0.00  0.00    +0.116 C 
BRANCH 229 230
ATOM    230  CD  GLU A  39       3.859  29.801  15.633  0.00  0.00    +0.365 C 
ATOM    231  OE2 GLU A  39       3.258  30.609  16.378  0.00  0.00    -0.246 OA
ATOM    232  OE1 GLU A  39       4.414  30.140  14.562  0.00  0.00    -0.246 OA
ENDBRANCH 229 230
ENDBRANCH 228 229
ENDBRANCH  21 228
ENDBRANCH  19  21
ENDBRANCH  16  18
ENDBRANCH  14  16
ENDBRANCH   9  13
ENDBRANCH   7   9
ENDBRANCH   5   6
BRANCH   5 233
ATOM    233  CB  LEU A  36       4.697  17.961  10.322  0.00  0.00    +0.031 C 
BRANCH 233 234
ATOM    234  CG  LEU A  36       5.529  16.685  10.320  0.00  0.00    +0.002 C 
ATOM    235  CD2 LEU A  36       4.706  15.490   9.855  0.00  0.00    +0.000 C 
ATOM    236  CD1 LEU A  36       6.764  16.851   9.398  0.00  0.00    +0.000 C 
ENDBRANCH 233 234
ENDBRANCH   5 233
ENDBRANCH   4   5
ENDBRANCH   1   2
BRANCH   1 238
ATOM    237  C   ALA A  34       3.693  18.697  15.011  0.00  0.00    +0.262 C 
ATOM    238  N   TYR A  35       5.050  18.596  15.121  0.00  0.00    -0.196 NA
ATOM    239  O   ALA A  34       3.143  19.694  14.526  0.00  0.00    -0.271 OA
BRANCH 237 240
ATOM    240  CA  ALA A  34       2.859  17.514  15.504  0.00  0.00    +0.173 C 
ATOM    241  CB  ALA A  34       2.524  17.728  16.980  0.00  0.00    +0.033 C 
BRANCH 240 243
ATOM    242  C   SER A  33       4.083  15.923  14.135  0.00  0.00    +0.264 C 
ATOM    243  N   ALA A  34       3.604  16.260  15.359  0.00  0.00    -0.196 NA
ATOM    244  O   SER A  33       3.872  16.616  13.143  0.00  0.00    -0.271 OA
BRANCH 242 245
ATOM    245  CA  SER A  33       4.949  14.663  14.044  0.00  0.00    +0.205 C 
BRANCH 245 248
ATOM    246  C   TYR A  32       6.165  14.996  16.143  0.00  0.00    +0.262 C 
ATOM    247  O   TYR A  32       6.608  16.094  15.758  0.00  0.00    -0.271 OA
ATOM    248  N   SER A  33       5.357  14.225  15.383  0.00  0.00    -0.194 NA
BRANCH 246 249
ATOM    249  CA  TYR A  32       6.417  14.529  17.575  0.00  0.00    +0.177 C 
BRANCH 249 251
ATOM    250  C   PHE A  31       4.213  13.681  18.203  0.00  0.00    +0.262 C 
ATOM    251  N   TYR A  32       5.538  13.452  17.983  0.00  0.00    -0.196 NA
ATOM    252  O   PHE A  31       3.681  14.764  17.944  0.00  0.00    -0.271 OA
BRANCH 250 253
ATOM    253  CA  PHE A  31       3.410  12.537  18.812  0.00  0.00    +0.177 C 
BRANCH 253 255
ATOM    254  C   GLY A  30       3.832  11.092  16.922  0.00  0.00    +0.264 C 
ATOM    255  N   PHE A  31       3.788  11.223  18.267  0.00  0.00    -0.196 NA
ATOM    256  O   GLY A  30       3.549  12.019  16.144  0.00  0.00    -0.271 OA
BRANCH 254 257
ATOM    257  CA  GLY A  30       4.269   9.741  16.372  0.00  0.00    +0.201 C 
BRANCH 257 260
ATOM    258  C   VAL A  29       6.345   9.485  17.639  0.00  0.00    +0.262 C 
ATOM    259  O   VAL A  29       6.723  10.632  17.347  0.00  0.00    -0.271 OA
ATOM    260  N   GLY A  30       5.177   8.990  17.226  0.00  0.00    -0.194 NA
BRANCH 258 261
ATOM    261  CA  VAL A  29       7.210   8.557  18.511  0.00  0.00    +0.173 C 
BRANCH 261 264
ATOM    262  C   GLY A  28       6.577   6.281  19.162  0.00  0.00    +0.264 C 
ATOM    263  O   GLY A  28       6.508   6.578  20.350  0.00  0.00    -0.271 OA
ATOM    264  N   VAL A  29       6.923   7.140  18.215  0.00  0.00    -0.196 NA
BRANCH 262 265
ATOM    265  CA  GLY A  28       6.328   4.844  18.729  0.00  0.00    +0.201 C 
BRANCH 265 268
ATOM    266  C   PHE A  27       8.243   4.354  17.238  0.00  0.00    +0.262 C 
ATOM    267  O   PHE A  27       9.083   4.617  18.092  0.00  0.00    -0.271 OA
ATOM    268  N   GLY A  28       6.919   4.493  17.435  0.00  0.00    -0.194 NA
BRANCH 266 269
ATOM    269  CA  PHE A  27       8.710   3.807  15.867  0.00  0.00    +0.177 C 
BRANCH 269 272
ATOM    270  C   GLN A  26       7.067   2.493  14.534  0.00  0.00    +0.262 C 
ATOM    271  O   GLN A  26       7.419   1.412  14.999  0.00  0.00    -0.271 OA
ATOM    272  N   PHE A  27       7.617   3.683  14.914  0.00  0.00    -0.196 NA
BRANCH 270 273
ATOM    273  CA  GLN A  26       5.927   2.546  13.507  0.00  0.00    +0.173 C 
BRANCH 273 276
ATOM    274  C   GLY A  25       4.717   4.471  14.377  0.00  0.00    +0.264 C 
ATOM    275  O   GLY A  25       4.464   3.891  15.431  0.00  0.00    -0.271 OA
ATOM    276  N   GLN A  26       5.421   3.907  13.376  0.00  0.00    -0.196 NA
BRANCH 274 277
ATOM    277  CA  GLY A  25       4.285   5.905  14.178  0.00  0.00    +0.201 C 
BRANCH 277 280
ATOM    278  C   ILE A  24       6.377   6.904  13.430  0.00  0.00    +0.262 C 
ATOM    279  O   ILE A  24       6.984   6.531  14.448  0.00  0.00    -0.271 OA
ATOM    280  N   GLY A  25       5.092   6.644  13.221  0.00  0.00    -0.194 NA
BRANCH 278 281
ATOM    281  CA  ILE A  24       7.124   7.737  12.350  0.00  0.00    +0.173 C 
BRANCH 281 284
ATOM    282  C   MET A  23       6.721   6.163  10.473  0.00  0.00    +0.262 C 
ATOM    283  O   MET A  23       6.858   5.174  11.174  0.00  0.00    -0.271 OA
ATOM    284  N   ILE A  24       6.776   7.414  10.960  0.00  0.00    -0.196 NA
BRANCH 282 285
ATOM    285  CA  MET A  23       6.370   6.001   8.992  0.00  0.00    +0.174 C 
BRANCH 285 288
ATOM    286  C   SER A  22       5.141   7.924   8.192  0.00  0.00    +0.264 C 
ATOM    287  O   SER A  22       4.112   7.500   8.720  0.00  0.00    -0.271 OA
ATOM    288  N   MET A  23       6.312   7.267   8.275  0.00  0.00    -0.196 NA
BRANCH 286 289
ATOM    289  CA  SER A  22       5.124   9.229   7.386  0.00  0.00    +0.205 C 
BRANCH 289 292
ATOM    290  C   ILE A  21       7.275  10.113   8.169  0.00  0.00    +0.262 C 
ATOM    291  O   ILE A  21       6.924   9.948   9.346  0.00  0.00    -0.271 OA
ATOM    292  N   SER A  22       6.476   9.767   7.136  0.00  0.00    -0.194 NA
BRANCH 290 293
ATOM    293  CA  ILE A  21       8.702  10.638   7.907  0.00  0.00    +0.173 C 
BRANCH 293 296
ATOM    294  C   ASP A  20       9.412   8.772   6.408  0.00  0.00    +0.262 C 
ATOM    295  O   ASP A  20       8.999   7.874   7.149  0.00  0.00    -0.271 OA
ATOM    296  N   ILE A  21       9.287  10.094   6.668  0.00  0.00    -0.196 NA
BRANCH 294 297
ATOM    297  CA  ASP A  20      10.132   8.392   5.106  0.00  0.00    +0.184 C 
BRANCH 297 299
ATOM    298  C   ALA A  19      11.656   6.480   4.936  0.00  0.00    +0.262 C 
ATOM    299  N   ASP A  20      10.410   6.959   5.126  0.00  0.00    -0.196 NA
ATOM    300  O   ALA A  19      12.635   7.205   4.710  0.00  0.00    -0.271 OA
BRANCH 298 301
ATOM    301  CA  ALA A  19      11.838   4.982   4.995  0.00  0.00    +0.173 C 
ATOM    302  CB  ALA A  19      11.868   4.519   6.446  0.00  0.00    +0.033 C 
BRANCH 301 304
ATOM    303  C   GLY A  18      13.407   3.658   3.561  0.00  0.00    +0.264 C 
ATOM    304  N   ALA A  19      13.116   4.712   4.333  0.00  0.00    -0.196 NA
ATOM    305  O   GLY A  18      12.636   2.705   3.387  0.00  0.00    -0.271 OA
BRANCH 303 306
ATOM    306  CA  GLY A  18      14.780   3.677   2.915  0.00  0.00    +0.201 C 
BRANCH 306 308
ATOM    307  C   ALA A  17      16.573   2.495   4.083  0.00  0.00    +0.262 C 
ATOM    308  N   GLY A  18      15.894   3.616   3.854  0.00  0.00    -0.194 NA
ATOM    309  O   ALA A  17      16.317   1.425   3.514  0.00  0.00    -0.271 OA
BRANCH 307 310
ATOM    310  CA  ALA A  17      17.733   2.567   5.101  0.00  0.00    +0.173 C 
ATOM    311  CB  ALA A  17      17.570   1.485   6.159  0.00  0.00    +0.033 C 
BRANCH 310 313
ATOM    312  C   GLN A  16      18.659   4.897   5.280  0.00  0.00    +0.262 C 
ATOM    313  N   ALA A  17      17.910   3.872   5.749  0.00  0.00    -0.196 NA
ATOM    314  O   GLN A  16      19.263   4.858   4.207  0.00  0.00    -0.271 OA
BRANCH 312 315
ATOM    315  CA  GLN A  16      18.721   6.175   6.135  0.00  0.00    +0.173 C 
BRANCH 315 317
ATOM    316  C   LEU A  15      16.316   6.743   6.357  0.00  0.00    +0.262 C 
ATOM    317  N   GLN A  16      17.485   6.354   6.905  0.00  0.00    -0.196 NA
ATOM    318  O   LEU A  15      16.171   6.978   5.152  0.00  0.00    -0.271 OA
BRANCH 316 319
ATOM    319  CA  LEU A  15      15.115   6.839   7.300  0.00  0.00    +0.173 C 
BRANCH 319 321
ATOM    320  C   ALA A  14      15.052   4.427   7.898  0.00  0.00    +0.262 C 
ATOM    321  N   LEU A  15      15.111   5.730   8.261  0.00  0.00    -0.196 NA
ATOM    322  O   ALA A  14      15.014   4.050   6.727  0.00  0.00    -0.271 OA
BRANCH 320 323
ATOM    323  CA  ALA A  14      15.063   3.380   8.997  0.00  0.00    +0.173 C 
ATOM    324  CB  ALA A  14      13.676   3.204   9.575  0.00  0.00    +0.033 C 
BRANCH 323 326
ATOM    325  C   GLU A  13      17.353   3.798   9.850  0.00  0.00    +0.262 C 
ATOM    326  N   ALA A  14      16.017   3.707  10.053  0.00  0.00    -0.196 NA
ATOM    327  O   GLU A  13      17.884   3.645   8.746  0.00  0.00    -0.271 OA
BRANCH 325 328
ATOM    328  CA  GLU A  13      18.213   4.161  11.061  0.00  0.00    +0.173 C 
BRANCH 328 330
ATOM    329  C   MET A  12      17.416   6.502  11.249  0.00  0.00    +0.262 C 
ATOM    330  N   GLU A  13      17.559   5.264  11.768  0.00  0.00    -0.196 NA
ATOM    331  O   MET A  12      17.804   6.816  10.119  0.00  0.00    -0.271 OA
BRANCH 329 332
ATOM    332  CA  MET A  12      16.635   7.524  12.075  0.00  0.00    +0.174 C 
BRANCH 332 334
ATOM    333  C   PHE A  11      14.500   6.372  12.273  0.00  0.00    +0.262 C 
ATOM    334  N   MET A  12      15.562   6.913  12.873  0.00  0.00    -0.196 NA
ATOM    335  O   PHE A  11      14.382   6.326  11.046  0.00  0.00    -0.271 OA
BRANCH 333 336
ATOM    336  CA  PHE A  11      13.409   5.767  13.167  0.00  0.00    +0.177 C 
BRANCH 336 338
ATOM    337  C   ALA A  10      14.689   3.814  13.945  0.00  0.00    +0.262 C 
ATOM    338  N   PHE A  11      13.976   4.926  14.223  0.00  0.00    -0.196 NA
ATOM    339  O   ALA A  10      14.931   3.449  12.793  0.00  0.00    -0.271 OA
BRANCH 337 340
ATOM    340  CA  ALA A  10      15.246   3.014  15.122  0.00  0.00    +0.173 C 
ATOM    341  CB  ALA A  10      14.188   2.116  15.713  0.00  0.00    +0.033 C 
BRANCH 340 343
ATOM    342  C   LYS A   9      16.846   4.683  15.938  0.00  0.00    +0.262 C 
ATOM    343  N   ALA A  10      15.796   3.886  16.155  0.00  0.00    -0.196 NA
ATOM    344  O   LYS A   9      17.430   4.759  14.847  0.00  0.00    -0.271 OA
BRANCH 342 345
ATOM    345  CA  LYS A   9      17.314   5.540  17.113  0.00  0.00    +0.173 C 
BRANCH 345 347
ATOM    346  C   THR A   8      15.380   7.074  16.938  0.00  0.00    +0.264 C 
ATOM    347  N   LYS A   9      16.182   6.277  17.692  0.00  0.00    -0.196 NA
ATOM    348  O   THR A   8      15.515   7.220  15.716  0.00  0.00    -0.271 OA
BRANCH 346 349
ATOM    349  CA  THR A   8      14.229   7.800  17.651  0.00  0.00    +0.203 C 
BRANCH 349 351
ATOM    350  C   GLY A   7      12.888   5.833  18.067  0.00  0.00    +0.264 C 
ATOM    351  N   THR A   8      13.508   6.907  18.549  0.00  0.00    -0.194 NA
ATOM    352  O   GLY A   7      12.833   5.580  16.862  0.00  0.00    -0.271 OA
BRANCH 350 353
ATOM    353  CA  GLY A   7      12.229   4.921  19.072  0.00  0.00    +0.201 C 
BRANCH 353 355
ATOM    354  C   SER A   6      14.260   4.120  20.180  0.00  0.00    +0.264 C 
ATOM    355  N   GLY A   7      13.058   4.696  20.255  0.00  0.00    -0.194 NA
ATOM    356  O   SER A   6      14.746   3.732  19.125  0.00  0.00    -0.271 OA
BRANCH 354 357
ATOM    357  CA  SER A   6      15.062   4.004  21.473  0.00  0.00    +0.205 C 
BRANCH 357 359
ATOM    358  C   LYS A   5      15.402   6.345  22.001  0.00  0.00    +0.262 C 
ATOM    359  N   SER A   6      14.897   5.160  22.350  0.00  0.00    -0.194 NA
ATOM    360  O   LYS A   5      15.951   6.531  20.915  0.00  0.00    -0.271 OA
BRANCH 358 361
ATOM    361  CA  LYS A   5      15.181   7.536  22.968  0.00  0.00    +0.173 C 
BRANCH 361 363
ATOM    362  C   ALA A   4      12.884   7.931  22.318  0.00  0.00    +0.262 C 
ATOM    363  N   LYS A   5      13.752   7.655  23.302  0.00  0.00    -0.196 NA
ATOM    364  O   ALA A   4      13.221   8.124  21.161  0.00  0.00    -0.271 OA
BRANCH 362 365
ATOM    365  CA  ALA A   4      11.391   8.004  22.620  0.00  0.00    +0.173 C 
ATOM    366  CB  ALA A   4      10.946   9.444  22.811  0.00  0.00    +0.033 C 
BRANCH 365 368
ATOM    367  C   ILE A   3      10.998   5.852  23.636  0.00  0.00    +0.262 C 
ATOM    368  N   ALA A   4      10.924   7.181  23.712  0.00  0.00    -0.196 NA
ATOM    369  O   ILE A   3      11.574   5.281  22.707  0.00  0.00    -0.271 OA
BRANCH 367 370
ATOM    370  CA  ILE A   3      10.232   5.113  24.751  0.00  0.00    +0.173 C 
BRANCH 370 373
ATOM    371  C   THR A   2       8.276   6.488  25.301  0.00  0.00    +0.264 C 
ATOM    372  O   THR A   2       8.835   7.003  26.275  0.00  0.00    -0.271 OA
ATOM    373  N   ILE A   3       8.829   5.504  24.564  0.00  0.00    -0.196 NA
BRANCH 371 374
ATOM    374  CA  THR A   2       6.877   6.923  24.910  0.00  0.00    +0.203 C 
BRANCH 374 377
ATOM    375  C   GLY A   1       5.200   7.212  26.699  0.00  0.00    +0.261 C 
ATOM    376  O   GLY A   1       4.735   6.073  26.527  0.00  0.00    -0.272 OA
ATOM    377  N   THR A   2       6.236   7.693  25.980  0.00  0.00    -0.194 NA
BRANCH 375 379
ATOM    378  N   GLY A   1       4.856   9.530  27.661  0.00  0.00    -0.121 NA
ATOM    379  CA  GLY A   1       4.591   8.093  27.761  0.00  0.00    +0.196 C 
ENDBRANCH 375 379
ENDBRANCH 374 377
BRANCH 374 380
ATOM    380  CB  THR A   2       7.006   7.767  23.627  0.00  0.00    +0.181 C 
ATOM    381  OG1 THR A   2       7.953   8.829  23.858  0.00  0.00    -0.221 OA
ATOM    382  CG2 THR A   2       5.696   8.331  23.157  0.00  0.00    +0.038 C 
ENDBRANCH 374 380
ENDBRANCH 371 374
ENDBRANCH 370 373
BRANCH 370 383
ATOM    383  CB  ILE A   3      10.452   3.579  24.768  0.00  0.00    +0.029 C 
ATOM    384  CG2 ILE A   3       9.906   3.040  26.070  0.00  0.00    +0.002 C 
BRANCH 383 385
ATOM    385  CG1 ILE A   3       9.795   2.886  23.584  0.00  0.00    +0.002 C 
ATOM    386  CD1 ILE A   3      10.321   1.447  23.352  0.00  0.00    +0.000 C 
ENDBRANCH 383 385
ENDBRANCH 370 383
ENDBRANCH 367 370
ENDBRANCH 365 368
ENDBRANCH 362 365
ENDBRANCH 361 363
BRANCH 361 387
ATOM    387  CB  LYS A   5      16.012   7.410  24.249  0.00  0.00    +0.031 C 
BRANCH 387 388
ATOM    388  CG  LYS A   5      17.523   7.418  24.040  0.00  0.00    +0.004 C 
BRANCH 388 389
ATOM    389  CD  LYS A   5      18.227   7.363  25.398  0.00  0.00    +0.021 C 
BRANCH 389 390
ATOM    390  CE  LYS A   5      19.719   7.182  25.267  0.00  0.00    +0.109 C 
ATOM    391  NZ  LYS A   5      20.375   7.088  26.599  0.00  0.00    -0.131 NA
ENDBRANCH 389 390
ENDBRANCH 388 389
ENDBRANCH 387 388
ENDBRANCH 361 387
ENDBRANCH 358 361
ENDBRANCH 357 359
BRANCH 357 392
ATOM    392  CB  SER A   6      14.750   2.709  22.212  0.00  0.00    +0.213 C 
ATOM    393  OG  SER A   6      13.412   2.717  22.667  0.00  0.00    -0.218 OA
ENDBRANCH 357 392
ENDBRANCH 354 357
ENDBRANCH 353 355
ENDBRANCH 350 353
ENDBRANCH 349 351
BRANCH 349 394
ATOM    394  CB  THR A   8      14.701   9.023  18.402  0.00  0.00    +0.181 C 
ATOM    395  OG1 THR A   8      13.544   9.719  18.873  0.00  0.00    -0.221 OA
ATOM    396  CG2 THR A   8      15.533   9.947  17.527  0.00  0.00    +0.038 C 
ENDBRANCH 349 394
ENDBRANCH 346 349
ENDBRANCH 345 347
BRANCH 345 397
ATOM    397  CB  LYS A   9      17.977   4.663  18.192  0.00  0.00    +0.031 C 
BRANCH 397 398
ATOM    398  CG  LYS A   9      19.277   3.985  17.734  0.00  0.00    +0.004 C 
BRANCH 398 399
ATOM    399  CD  LYS A   9      19.756   2.942  18.750  0.00  0.00    +0.021 C 
BRANCH 399 400
ATOM    400  CE  LYS A   9      21.154   2.433  18.464  0.00  0.00    +0.109 C 
ATOM    401  NZ  LYS A   9      22.200   3.446  18.788  0.00  0.00    -0.131 NA
ENDBRANCH 399 400
ENDBRANCH 398 399
ENDBRANCH 397 398
ENDBRANCH 345 397
ENDBRANCH 342 345
ENDBRANCH 340 343
ENDBRANCH 337 340
ENDBRANCH 336 338
BRANCH 336 402
ATOM    402  CB  PHE A  11      12.519   6.871  13.799  0.00  0.00    +0.057 C 
BRANCH 402 403
ATOM    403  CG  PHE A  11      11.794   7.814  12.864  0.00  0.00    -0.020 A 
ATOM    404  CD2 PHE A  11      11.658   9.154  13.176  0.00  0.00    -0.004 A 
ATOM    405  CE2 PHE A  11      10.927  10.016  12.353  0.00  0.00    -0.000 A 
ATOM    406  CZ  PHE A  11      10.347   9.540  11.198  0.00  0.00    -0.000 A 
ATOM    407  CE1 PHE A  11      10.487   8.220  10.856  0.00  0.00    -0.000 A 
ATOM    408  CD1 PHE A  11      11.192   7.347  11.700  0.00  0.00    -0.004 A 
ENDBRANCH 402 403
ENDBRANCH 336 402
ENDBRANCH 333 336
ENDBRANCH 332 334
BRANCH 332 409
ATOM    409  CB  MET A  12      17.540   8.383  12.944  0.00  0.00    +0.043 C 
BRANCH 409 410
ATOM    410  CG  MET A  12      16.942   9.729  13.234  0.00  0.00    +0.060 C 
BRANCH 410 411
ATOM    411  SD  MET A  12      17.879  10.455  14.582  0.00  0.00    -0.139 S 
ATOM    412  CE  MET A  12      17.081  12.036  14.742  0.00  0.00    +0.069 C 
ENDBRANCH 410 411
ENDBRANCH 409 410
ENDBRANCH 332 409
ENDBRANCH 329 332
ENDBRANCH 328 330
BRANCH 328 413
ATOM    413  CB  GLU A  13      18.355   2.935  11.980  0.00  0.00    +0.043 C 
BRANCH 413 414
ATOM    414  CG  GLU A  13      19.665   2.878  12.747  0.00  0.00    +0.116 C 
BRANCH 414 415
ATOM    415  CD  GLU A  13      19.709   1.927  13.930  0.00  0.00    +0.365 C 
ATOM    416  OE2 GLU A  13      20.386   2.263  14.929  0.00  0.00    -0.246 OA
ATOM    417  OE1 GLU A  13      19.093   0.839  13.855  0.00  0.00    -0.246 OA
ENDBRANCH 414 415
ENDBRANCH 413 414
ENDBRANCH 328 413
ENDBRANCH 325 328
ENDBRANCH 323 326
ENDBRANCH 320 323
ENDBRANCH 319 321
BRANCH 319 418
ATOM    418  CB  LEU A  15      15.082   8.207   7.999  0.00  0.00    +0.031 C 
BRANCH 418 419
ATOM    419  CG  LEU A  15      13.779   8.558   8.756  0.00  0.00    +0.002 C 
ATOM    420  CD2 LEU A  15      13.956   9.824   9.550  0.00  0.00    +0.000 C 
ATOM    421  CD1 LEU A  15      12.605   8.719   7.808  0.00  0.00    +0.000 C 
ENDBRANCH 418 419
ENDBRANCH 319 418
ENDBRANCH 316 319
ENDBRANCH 315 317
BRANCH 315 422
ATOM    422  CB  GLN A  16      19.954   6.158   7.063  0.00  0.00    +0.041 C 
BRANCH 422 423
ATOM    423  CG  GLN A  16      20.262   7.490   7.758  0.00  0.00    +0.091 C 
BRANCH 423 424
ATOM    424  CD  GLN A  16      20.753   8.560   6.808  0.00  0.00    +0.261 C 
ATOM    425  NE2 GLN A  16      22.058   8.599   6.576  0.00  0.00    -0.088 NA
ATOM    426  OE1 GLN A  16      19.975   9.367   6.286  0.00  0.00    -0.272 OA
ENDBRANCH 423 424
ENDBRANCH 422 423
ENDBRANCH 315 422
ENDBRANCH 312 315
ENDBRANCH 310 313
ENDBRANCH 307 310
ENDBRANCH 306 308
ENDBRANCH 303 306
ENDBRANCH 301 304
ENDBRANCH 298 301
ENDBRANCH 297 299
BRANCH 297 427
ATOM    427  CB  ASP A  20       9.304   8.756   3.879  0.00  0.00    +0.145 C 
BRANCH 427 428
ATOM    428  CG  ASP A  20       7.935   8.119   3.901  0.00  0.00    +0.367 C 
ATOM    429  OD2 ASP A  20       6.968   8.825   4.232  0.00  0.00    -0.246 OA
ATOM    430  OD1 ASP A  20       7.841   6.893   3.637  0.00  0.00    -0.246 OA
ENDBRANCH 427 428
ENDBRANCH 297 427
ENDBRANCH 294 297
ENDBRANCH 293 296
BRANCH 293 431
ATOM    431  CB  ILE A  21       8.822  12.177   7.917  0.00  0.00    +0.029 C 
ATOM    432  CG2 ILE A  21       7.891  12.836   8.952  0.00  0.00    +0.002 C 
BRANCH 431 433
ATOM    433  CG1 ILE A  21      10.304  12.580   8.186  0.00  0.00    +0.002 C 
ATOM    434  CD1 ILE A  21      10.679  14.011   7.851  0.00  0.00    +0.000 C 
ENDBRANCH 431 433
ENDBRANCH 293 431
ENDBRANCH 290 293
ENDBRANCH 289 292
BRANCH 289 435
ATOM    435  CB  SER A  22       4.386   8.960   6.078  0.00  0.00    +0.213 C 
ATOM    436  OG  SER A  22       4.861   7.770   5.463  0.00  0.00    -0.218 OA
ENDBRANCH 289 435
ENDBRANCH 286 289
ENDBRANCH 285 288
BRANCH 285 437
ATOM    437  CB  MET A  23       7.376   5.074   8.303  0.00  0.00    +0.043 C 
BRANCH 437 438
ATOM    438  CG  MET A  23       6.874   4.617   6.933  0.00  0.00    +0.060 C 
BRANCH 438 439
ATOM    439  SD  MET A  23       8.228   4.014   5.894  0.00  0.00    -0.139 S 
ATOM    440  CE  MET A  23       8.610   2.504   6.781  0.00  0.00    +0.069 C 
ENDBRANCH 438 439
ENDBRANCH 437 438
ENDBRANCH 285 437
ENDBRANCH 282 285
ENDBRANCH 281 284
BRANCH 281 441
ATOM    441  CB  ILE A  24       6.942   9.263  12.580  0.00  0.00    +0.029 C 
ATOM    442  CG2 ILE A  24       5.450   9.719  12.415  0.00  0.00    +0.002 C 
BRANCH 441 443
ATOM    443  CG1 ILE A  24       7.554   9.670  13.946  0.00  0.00    +0.002 C 
ATOM    444  CD1 ILE A  24       7.735  11.165  14.141  0.00  0.00    +0.000 C 
ENDBRANCH 441 443
ENDBRANCH 281 441
ENDBRANCH 278 281
ENDBRANCH 277 280
ENDBRANCH 274 277
ENDBRANCH 273 276
BRANCH 273 445
ATOM    445  CB  GLN A  26       6.390   2.017  12.153  0.00  0.00    +0.041 C 
BRANCH 445 446
ATOM    446  CG  GLN A  26       5.213   1.833  11.209  0.00  0.00    +0.091 C 
BRANCH 446 447
ATOM    447  CD  GLN A  26       5.650   1.169   9.944  0.00  0.00    +0.261 C 
ATOM    448  OE1 GLN A  26       6.293   0.111   9.962  0.00  0.00    -0.272 OA
ATOM    449  NE2 GLN A  26       5.320   1.790   8.824  0.00  0.00    -0.088 NA
ENDBRANCH 446 447
ENDBRANCH 445 446
ENDBRANCH 273 445
ENDBRANCH 270 273
ENDBRANCH 269 272
BRANCH 269 450
ATOM    450  CB  PHE A  27       9.860   4.608  15.239  0.00  0.00    +0.057 C 
BRANCH 450 451
ATOM    451  CG  PHE A  27      10.235   3.999  13.898  0.00  0.00    -0.020 A 
ATOM    452  CD2 PHE A  27      11.078   2.894  13.830  0.00  0.00    -0.004 A 
ATOM    453  CE2 PHE A  27      11.363   2.283  12.604  0.00  0.00    -0.000 A 
ATOM    454  CZ  PHE A  27      10.857   2.811  11.436  0.00  0.00    -0.000 A 
ATOM    455  CE1 PHE A  27      10.016   3.906  11.483  0.00  0.00    -0.000 A 
ATOM    456  CD1 PHE A  27       9.690   4.485  12.720  0.00  0.00    -0.004 A 
ENDBRANCH 450 451
ENDBRANCH 269 450
ENDBRANCH 266 269
ENDBRANCH 265 268
ENDBRANCH 262 265
ENDBRANCH 261 264
BRANCH 261 457
ATOM    457  CB  VAL A  29       8.730   8.865  18.380  0.00  0.00    +0.029 C 
ATOM    458  CG2 VAL A  29       9.520   8.231  19.517  0.00  0.00    +0.002 C 
ATOM    459  CG1 VAL A  29       9.305   8.409  17.029  0.00  0.00    +0.002 C 
ENDBRANCH 261 457
ENDBRANCH 258 261
ENDBRANCH 257 260
ENDBRANCH 254 257
ENDBRANCH 253 255
BRANCH 253 460
ATOM    460  CB  PHE A  31       3.658  12.544  20.349  0.00  0.00    +0.057 C 
BRANCH 460 461
ATOM    461  CG  PHE A  31       3.552  13.931  20.946  0.00  0.00    -0.020 A 
ATOM    462  CD2 PHE A  31       4.697  14.645  21.295  0.00  0.00    -0.004 A 
ATOM    463  CE2 PHE A  31       4.600  15.953  21.775  0.00  0.00    -0.000 A 
ATOM    464  CZ  PHE A  31       3.359  16.514  22.012  0.00  0.00    -0.000 A 
ATOM    465  CE1 PHE A  31       2.212  15.812  21.693  0.00  0.00    -0.000 A 
ATOM    466  CD1 PHE A  31       2.306  14.498  21.203  0.00  0.00    -0.004 A 
ENDBRANCH 460 461
ENDBRANCH 253 460
ENDBRANCH 250 253
ENDBRANCH 249 251
BRANCH 249 467
ATOM    467  CB  TYR A  32       7.898  14.198  17.836  0.00  0.00    +0.057 C 
BRANCH 467 468
ATOM    468  CG  TYR A  32       8.170  13.913  19.297  0.00  0.00    -0.020 A 
ATOM    469  CD2 TYR A  32       8.462  14.944  20.190  0.00  0.00    -0.001 A 
ATOM    470  CE2 TYR A  32       8.639  14.686  21.548  0.00  0.00    +0.042 A 
ATOM    471  CZ  TYR A  32       8.556  13.386  22.016  0.00  0.00    +0.196 A 
ATOM    472  OH  TYR A  32       8.700  13.085  23.341  0.00  0.00    -0.287 OA
ATOM    473  CE1 TYR A  32       8.245  12.352  21.153  0.00  0.00    +0.042 A 
ATOM    474  CD1 TYR A  32       8.071  12.618  19.803  0.00  0.00    -0.001 A 
ENDBRANCH 467 468
ENDBRANCH 249 467
ENDBRANCH 246 249
ENDBRANCH 245 248
BRANCH 245 475
ATOM    475  CB  SER A  33       4.197  13.568  13.290  0.00  0.00    +0.213 C 
ATOM    476  OG  SER A  33       2.936  13.303  13.865  0.00  0.00    -0.218 OA
ENDBRANCH 245 475
ENDBRANCH 242 245
ENDBRANCH 240 243
ENDBRANCH 237 240
ENDBRANCH   1 238
BRANCH   1 477
ATOM    477  CB  TYR A  35       7.269  19.630  15.509  0.00  0.00    +0.057 C 
BRANCH 477 478
ATOM    478  CG  TYR A  35       7.068  19.934  16.976  0.00  0.00    -0.020 A 
ATOM    479  CD2 TYR A  35       6.756  18.922  17.878  0.00  0.00    -0.001 A 
ATOM    480  CE2 TYR A  35       6.458  19.209  19.211  0.00  0.00    +0.042 A 
ATOM    481  CZ  TYR A  35       6.472  20.522  19.651  0.00  0.00    +0.196 A 
ATOM    482  OH  TYR A  35       6.175  20.821  20.968  0.00  0.00    -0.287 OA
ATOM    483  CE1 TYR A  35       6.773  21.546  18.766  0.00  0.00    +0.042 A 
ATOM    484  CD1 TYR A  35       7.057  21.248  17.435  0.00  0.00    -0.001 A 
ENDBRANCH 477 478
ENDBRANCH   1 477
TORSDOF 226
REMARK  Name = /Users/mlugowska/PhD/ML_residence_time_prediction/protein_files/5J64_protein.pdb
REMARK  786 active torsions:
REMARK  status: ('A' for Active; 'I' for Inactive)
REMARK    1  A    between atoms: _2  and  _3
REMARK    2  A    between atoms: _2  and  _5
REMARK    3  A    between atoms: _5  and  _6
REMARK    4  A    between atoms: _6  and  _7
REMARK    5  A    between atoms: _10  and  _11
REMARK    6  A    between atoms: _11  and  _12
REMARK    7  A    between atoms: _11  and  _14
REMARK    8  A    between atoms: _17  and  _18
REMARK    9  A    between atoms: _18  and  _19
REMARK   10  A    between atoms: _18  and  _21
REMARK   11  A    between atoms: _21  and  _22
REMARK   12  A    between atoms: _22  and  _23
REMARK   13  A    between atoms: _26  and  _27
REMARK   14  A    between atoms: _27  and  _28
REMARK   15  A    between atoms: _27  and  _30
REMARK   16  A    between atoms: _33  and  _34
REMARK   17  A    between atoms: _34  and  _35
REMARK   18  A    between atoms: _34  and  _37
REMARK   19  A    between atoms: _37  and  _38
REMARK   20  A    between atoms: _44  and  _45
REMARK   21  A    between atoms: _45  and  _46
REMARK   22  A    between atoms: _49  and  _50
REMARK   23  A    between atoms: _50  and  _51
REMARK   24  A    between atoms: _50  and  _53
REMARK   25  A    between atoms: _53  and  _54
REMARK   26  A    between atoms: _60  and  _61
REMARK   27  A    between atoms: _61  and  _62
REMARK   28  A    between atoms: _61  and  _64
REMARK   29  A    between atoms: _64  and  _65
REMARK   30  A    between atoms: _65  and  _66
REMARK   31  A    between atoms: _69  and  _70
REMARK   32  A    between atoms: _70  and  _71
REMARK   33  A    between atoms: _74  and  _75
REMARK   34  A    between atoms: _75  and  _76
REMARK   35  A    between atoms: _75  and  _78
REMARK   36  A    between atoms: _78  and  _79
REMARK   37  A    between atoms: _79  and  _80
REMARK   38  A    between atoms: _83  and  _84
REMARK   39  A    between atoms: _84  and  _85
REMARK   40  A    between atoms: _84  and  _87
REMARK   41  A    between atoms: _87  and  _88
REMARK   42  A    between atoms: _91  and  _92
REMARK   43  A    between atoms: _92  and  _93
REMARK   44  A    between atoms: _96  and  _97
REMARK   45  A    between atoms: _97  and  _98
REMARK   46  A    between atoms: _97  and  _100
REMARK   47  A    between atoms: _100  and  _101
REMARK   48  A    between atoms: _101  and  _102
REMARK   49  A    between atoms: _105  and  _106
REMARK   50  A    between atoms: _106  and  _107
REMARK   51  A    between atoms: _106  and  _109
REMARK   52  A    between atoms: _109  and  _110
REMARK   53  A    between atoms: _113  and  _114
REMARK   54  A    between atoms: _114  and  _115
REMARK   55  A    between atoms: _114  and  _117
REMARK   56  A    between atoms: _117  and  _118
REMARK   57  A    between atoms: _118  and  _119
REMARK   58  A    between atoms: _121  and  _122
REMARK   59  A    between atoms: _122  and  _123
REMARK   60  A    between atoms: _122  and  _125
REMARK   61  A    between atoms: _127  and  _128
REMARK   62  A    between atoms: _128  and  _129
REMARK   63  A    between atoms: _128  and  _131
REMARK   64  A    between atoms: _131  and  _132
REMARK   65  A    between atoms: _135  and  _136
REMARK   66  A    between atoms: _136  and  _137
REMARK   67  A    between atoms: _136  and  _139
REMARK   68  A    between atoms: _139  and  _140
REMARK   69  A    between atoms: _143  and  _144
REMARK   70  A    between atoms: _144  and  _145
REMARK   71  A    between atoms: _144  and  _147
REMARK   72  A    between atoms: _147  and  _148
REMARK   73  A    between atoms: _151  and  _152
REMARK   74  A    between atoms: _152  and  _153
REMARK   75  A    between atoms: _152  and  _155
REMARK   76  A    between atoms: _155  and  _156
REMARK   77  A    between atoms: _159  and  _160
REMARK   78  A    between atoms: _160  and  _161
REMARK   79  A    between atoms: _160  and  _163
REMARK   80  A    between atoms: _166  and  _167
REMARK   81  A    between atoms: _167  and  _170
REMARK   82  A    between atoms: _170  and  _171
REMARK   83  A    between atoms: _181  and  _183
REMARK   84  A    between atoms: _183  and  _184
REMARK   85  A    between atoms: _189  and  _194
REMARK   86  A    between atoms: _192  and  _195
REMARK   87  A    between atoms: _193  and  _194
REMARK   88  A    between atoms: _195  and  _196
REMARK   89  A    between atoms: _201  and  _202
REMARK   90  A    between atoms: _202  and  _203
REMARK   91  A    between atoms: _202  and  _205
REMARK   92  A    between atoms: _207  and  _208
REMARK   93  A    between atoms: _208  and  _209
REMARK   94  A    between atoms: _208  and  _211
REMARK   95  A    between atoms: _211  and  _212
REMARK   96  A    between atoms: _215  and  _216
REMARK   97  A    between atoms: _216  and  _217
REMARK   98  A    between atoms: _216  and  _219
REMARK   99  A    between atoms: _219  and  _220
REMARK  100  A    between atoms: _220  and  _221
REMARK  101  A    between atoms: _221  and  _222
REMARK  102  A    between atoms: _224  and  _225
REMARK  103  A    between atoms: _225  and  _226
REMARK  104  A    between atoms: _225  and  _228
REMARK  105  A    between atoms: _228  and  _229
REMARK  106  A    between atoms: _229  and  _230
REMARK  107  A    between atoms: _233  and  _234
REMARK  108  A    between atoms: _234  and  _235
REMARK  109  A    between atoms: _234  and  _237
REMARK  110  A    between atoms: _237  and  _238
REMARK  111  A    between atoms: _241  and  _242
REMARK  112  A    between atoms: _242  and  _243
REMARK  113  A    between atoms: _242  and  _245
REMARK  114  A    between atoms: _245  and  _246
REMARK  115  A    between atoms: _252  and  _253
REMARK  116  A    between atoms: _253  and  _254
REMARK  117  A    between atoms: _253  and  _256
REMARK  118  A    between atoms: _256  and  _257
REMARK  119  A    between atoms: _260  and  _261
REMARK  120  A    between atoms: _261  and  _262
REMARK  121  A    between atoms: _261  and  _264
REMARK  122  A    between atoms: _264  and  _265
REMARK  123  A    between atoms: _265  and  _266
REMARK  124  A    between atoms: _266  and  _267
REMARK  125  A    between atoms: _271  and  _272
REMARK  126  A    between atoms: _272  and  _273
REMARK  127  A    between atoms: _272  and  _275
REMARK  128  A    between atoms: _275  and  _276
REMARK  129  A    between atoms: _276  and  _277
REMARK  130  A    between atoms: _280  and  _281
REMARK  131  A    between atoms: _281  and  _282
REMARK  132  A    between atoms: _281  and  _284
REMARK  133  A    between atoms: _284  and  _285
REMARK  134  A    between atoms: _288  and  _289
REMARK  135  A    between atoms: _289  and  _292
REMARK  136  A    between atoms: _292  and  _293
REMARK  137  A    between atoms: _309  and  _310
REMARK  138  A    between atoms: _309  and  _312
REMARK  139  A    between atoms: _312  and  _313
REMARK  140  A    between atoms: _316  and  _317
REMARK  141  A    between atoms: _317  and  _318
REMARK  142  A    between atoms: _317  and  _320
REMARK  143  A    between atoms: _322  and  _323
REMARK  144  A    between atoms: _323  and  _324
REMARK  145  A    between atoms: _323  and  _326
REMARK  146  A    between atoms: _328  and  _329
REMARK  147  A    between atoms: _329  and  _330
REMARK  148  A    between atoms: _329  and  _332
REMARK  149  A    between atoms: _332  and  _333
REMARK  150  A    between atoms: _336  and  _337
REMARK  151  A    between atoms: _337  and  _338
REMARK  152  A    between atoms: _341  and  _342
REMARK  153  A    between atoms: _342  and  _343
REMARK  154  A    between atoms: _342  and  _345
REMARK  155  A    between atoms: _345  and  _346
REMARK  156  A    between atoms: _349  and  _350
REMARK  157  A    between atoms: _350  and  _351
REMARK  158  A    between atoms: _350  and  _353
REMARK  159  A    between atoms: _353  and  _354
REMARK  160  A    between atoms: _357  and  _358
REMARK  161  A    between atoms: _358  and  _359
REMARK  162  A    between atoms: _358  and  _361
REMARK  163  A    between atoms: _361  and  _362
REMARK  164  A    between atoms: _362  and  _363
REMARK  165  A    between atoms: _363  and  _364
REMARK  166  A    between atoms: _366  and  _367
REMARK  167  A    between atoms: _367  and  _368
REMARK  168  A    between atoms: _367  and  _370
REMARK  169  A    between atoms: _370  and  _371
REMARK  170  A    between atoms: _374  and  _375
REMARK  171  A    between atoms: _375  and  _376
REMARK  172  A    between atoms: _375  and  _378
REMARK  173  A    between atoms: _378  and  _379
REMARK  174  A    between atoms: _379  and  _380
REMARK  175  A    between atoms: _380  and  _381
REMARK  176  A    between atoms: _385  and  _386
REMARK  177  A    between atoms: _386  and  _387
REMARK  178  A    between atoms: _386  and  _389
REMARK  179  A    between atoms: _389  and  _390
REMARK  180  A    between atoms: _397  and  _398
REMARK  181  A    between atoms: _398  and  _399
REMARK  182  A    between atoms: _398  and  _401
REMARK  183  A    between atoms: _401  and  _402
REMARK  184  A    between atoms: _402  and  _403
REMARK  185  A    between atoms: _406  and  _407
REMARK  186  A    between atoms: _407  and  _408
REMARK  187  A    between atoms: _407  and  _410
REMARK  188  A    between atoms: _412  and  _413
REMARK  189  A    between atoms: _413  and  _414
REMARK  190  A    between atoms: _413  and  _416
REMARK  191  A    between atoms: _416  and  _417
REMARK  192  A    between atoms: _420  and  _421
REMARK  193  A    between atoms: _421  and  _422
REMARK  194  A    between atoms: _421  and  _424
REMARK  195  A    between atoms: _427  and  _428
REMARK  196  A    between atoms: _428  and  _429
REMARK  197  A    between atoms: _428  and  _431
REMARK  198  A    between atoms: _431  and  _432
REMARK  199  A    between atoms: _436  and  _437
REMARK  200  A    between atoms: _442  and  _443
REMARK  201  A    between atoms: _443  and  _444
REMARK  202  A    between atoms: _443  and  _446
REMARK  203  A    between atoms: _448  and  _449
REMARK  204  A    between atoms: _449  and  _450
REMARK  205  A    between atoms: _449  and  _452
REMARK  206  A    between atoms: _452  and  _453
REMARK  207  A    between atoms: _453  and  _454
REMARK  208  A    between atoms: _454  and  _455
REMARK  209  A    between atoms: _457  and  _458
REMARK  210  A    between atoms: _458  and  _459
REMARK  211  A    between atoms: _458  and  _461
REMARK  212  A    between atoms: _461  and  _462
REMARK  213  A    between atoms: _465  and  _466
REMARK  214  A    between atoms: _466  and  _467
REMARK  215  A    between atoms: _466  and  _469
REMARK  216  A    between atoms: _469  and  _470
REMARK  217  A    between atoms: _473  and  _474
REMARK  218  A    between atoms: _474  and  _475
REMARK  219  A    between atoms: _474  and  _477
REMARK  220  A    between atoms: _479  and  _480
REMARK  221  A    between atoms: _480  and  _481
REMARK  222  A    between atoms: _483  and  _484
REMARK  223  A    between atoms: _484  and  _485
REMARK  224  A    between atoms: _484  and  _487
REMARK  225  A    between atoms: _487  and  _488
REMARK  226  A    between atoms: _488  and  _489
REMARK  227  A    between atoms: _489  and  _490
REMARK  228  A    between atoms: _492  and  _493
REMARK  229  A    between atoms: _493  and  _494
REMARK  230  A    between atoms: _493  and  _496
REMARK  231  A    between atoms: _496  and  _497
REMARK  232  A    between atoms: _497  and  _498
REMARK  233  A    between atoms: _501  and  _502
REMARK  234  A    between atoms: _502  and  _503
REMARK  235  A    between atoms: _502  and  _505
REMARK  236  A    between atoms: _505  and  _506
REMARK  237  A    between atoms: _509  and  _510
REMARK  238  A    between atoms: _510  and  _511
REMARK  239  A    between atoms: _510  and  _513
REMARK  240  A    between atoms: _513  and  _514
REMARK  241  A    between atoms: _519  and  _520
REMARK  242  A    between atoms: _520  and  _521
REMARK  243  A    between atoms: _520  and  _523
REMARK  244  A    between atoms: _523  and  _524
REMARK  245  A    between atoms: _527  and  _528
REMARK  246  A    between atoms: _528  and  _529
REMARK  247  A    between atoms: _528  and  _531
REMARK  248  A    between atoms: _531  and  _532
REMARK  249  A    between atoms: _535  and  _536
REMARK  250  A    between atoms: _536  and  _537
REMARK  251  A    between atoms: _536  and  _539
REMARK  252  A    between atoms: _539  and  _540
REMARK  253  A    between atoms: _543  and  _544
REMARK  254  A    between atoms: _544  and  _545
REMARK  255  A    between atoms: _544  and  _547
REMARK  256  A    between atoms: _547  and  _548
REMARK  257  A    between atoms: _552  and  _553
REMARK  258  A    between atoms: _558  and  _559
REMARK  259  A    between atoms: _559  and  _560
REMARK  260  A    between atoms: _559  and  _562
REMARK  261  A    between atoms: _562  and  _563
REMARK  262  A    between atoms: _566  and  _567
REMARK  263  A    between atoms: _567  and  _568
REMARK  264  A    between atoms: _567  and  _570
REMARK  265  A    between atoms: _570  and  _571
REMARK  266  A    between atoms: _571  and  _572
REMARK  267  A    between atoms: _572  and  _573
REMARK  268  A    between atoms: _575  and  _576
REMARK  269  A    between atoms: _576  and  _577
REMARK  270  A    between atoms: _576  and  _579
REMARK  271  A    between atoms: _579  and  _580
REMARK  272  A    between atoms: _580  and  _581
REMARK  273  A    between atoms: _584  and  _585
REMARK  274  A    between atoms: _585  and  _586
REMARK  275  A    between atoms: _585  and  _588
REMARK  276  A    between atoms: _588  and  _589
REMARK  277  A    between atoms: _592  and  _593
REMARK  278  A    between atoms: _593  and  _594
REMARK  279  A    between atoms: _593  and  _596
REMARK  280  A    between atoms: _596  and  _597
REMARK  281  A    between atoms: _597  and  _598
REMARK  282  A    between atoms: _598  and  _599
REMARK  283  A    between atoms: _603  and  _604
REMARK  284  A    between atoms: _604  and  _605
REMARK  285  A    between atoms: _604  and  _607
REMARK  286  A    between atoms: _610  and  _611
REMARK  287  A    between atoms: _611  and  _612
REMARK  288  A    between atoms: _611  and  _614
REMARK  289  A    between atoms: _614  and  _615
REMARK  290  A    between atoms: _618  and  _619
REMARK  291  A    between atoms: _619  and  _620
REMARK  292  A    between atoms: _619  and  _622
REMARK  293  A    between atoms: _625  and  _626
REMARK  294  A    between atoms: _626  and  _627
REMARK  295  A    between atoms: _626  and  _629
REMARK  296  A    between atoms: _629  and  _630
REMARK  297  A    between atoms: _633  and  _634
REMARK  298  A    between atoms: _634  and  _635
REMARK  299  A    between atoms: _634  and  _637
REMARK  300  A    between atoms: _640  and  _641
REMARK  301  A    between atoms: _641  and  _642
REMARK  302  A    between atoms: _641  and  _644
REMARK  303  A    between atoms: _644  and  _645
REMARK  304  A    between atoms: _648  and  _649
REMARK  305  A    between atoms: _649  and  _650
REMARK  306  A    between atoms: _649  and  _652
REMARK  307  A    between atoms: _655  and  _656
REMARK  308  A    between atoms: _656  and  _657
REMARK  309  A    between atoms: _659  and  _660
REMARK  310  A    between atoms: _660  and  _661
REMARK  311  A    between atoms: _660  and  _663
REMARK  312  A    between atoms: _663  and  _664
REMARK  313  A    between atoms: _667  and  _668
REMARK  314  A    between atoms: _668  and  _669
REMARK  315  A    between atoms: _671  and  _672
REMARK  316  A    between atoms: _672  and  _673
REMARK  317  A    between atoms: _672  and  _675
REMARK  318  A    between atoms: _675  and  _676
REMARK  319  A    between atoms: _676  and  _677
REMARK  320  A    between atoms: _679  and  _680
REMARK  321  A    between atoms: _680  and  _681
REMARK  322  A    between atoms: _680  and  _683
REMARK  323  A    between atoms: _686  and  _687
REMARK  324  A    between atoms: _687  and  _688
REMARK  325  A    between atoms: _687  and  _690
REMARK  326  A    between atoms: _690  and  _691
REMARK  327  A    between atoms: _691  and  _692
REMARK  328  A    between atoms: _692  and  _693
REMARK  329  A    between atoms: _695  and  _696
REMARK  330  A    between atoms: _696  and  _697
REMARK  331  A    between atoms: _700  and  _701
REMARK  332  A    between atoms: _701  and  _702
REMARK  333  A    between atoms: _701  and  _704
REMARK  334  A    between atoms: _704  and  _705
REMARK  335  A    between atoms: _708  and  _709
REMARK  336  A    between atoms: _709  and  _710
REMARK  337  A    between atoms: _709  and  _712
REMARK  338  A    between atoms: _712  and  _713
REMARK  339  A    between atoms: _716  and  _717
REMARK  340  A    between atoms: _717  and  _720
REMARK  341  A    between atoms: _720  and  _721
REMARK  342  A    between atoms: _733  and  _734
REMARK  343  A    between atoms: _733  and  _735
REMARK  344  A    between atoms: _741  and  _744
REMARK  345  A    between atoms: _744  and  _745
REMARK  346  A    between atoms: _758  and  _759
REMARK  347  A    between atoms: _758  and  _761
REMARK  348  A    between atoms: _759  and  _760
REMARK  349  A    between atoms: _765  and  _766
REMARK  350  A    between atoms: _768  and  _769
REMARK  351  A    between atoms: _769  and  _770
REMARK  352  A    between atoms: _769  and  _772
REMARK  353  A    between atoms: _775  and  _776
REMARK  354  A    between atoms: _776  and  _777
REMARK  355  A    between atoms: _776  and  _779
REMARK  356  A    between atoms: _779  and  _780
REMARK  357  A    between atoms: _783  and  _784
REMARK  358  A    between atoms: _784  and  _785
REMARK  359  A    between atoms: _788  and  _789
REMARK  360  A    between atoms: _789  and  _790
REMARK  361  A    between atoms: _789  and  _792
REMARK  362  A    between atoms: _792  and  _793
REMARK  363  A    between atoms: _793  and  _794
REMARK  364  A    between atoms: _794  and  _795
REMARK  365  A    between atoms: _797  and  _798
REMARK  366  A    between atoms: _798  and  _799
REMARK  367  A    between atoms: _798  and  _801
REMARK  368  A    between atoms: _803  and  _804
REMARK  369  A    between atoms: _804  and  _805
REMARK  370  A    between atoms: _807  and  _808
REMARK  371  A    between atoms: _808  and  _809
REMARK  372  A    between atoms: _808  and  _811
REMARK  373  A    between atoms: _814  and  _815
REMARK  374  A    between atoms: _815  and  _816
REMARK  375  A    between atoms: _815  and  _818
REMARK  376  A    between atoms: _818  and  _819
REMARK  377  A    between atoms: _819  and  _820
REMARK  378  A    between atoms: _820  and  _821
REMARK  379  A    between atoms: _823  and  _824
REMARK  380  A    between atoms: _824  and  _825
REMARK  381  A    between atoms: _828  and  _829
REMARK  382  A    between atoms: _829  and  _830
REMARK  383  A    between atoms: _829  and  _832
REMARK  384  A    between atoms: _832  and  _833
REMARK  385  A    between atoms: _839  and  _840
REMARK  386  A    between atoms: _840  and  _841
REMARK  387  A    between atoms: _840  and  _843
REMARK  388  A    between atoms: _843  and  _844
REMARK  389  A    between atoms: _844  and  _845
REMARK  390  A    between atoms: _847  and  _848
REMARK  391  A    between atoms: _848  and  _849
REMARK  392  A    between atoms: _848  and  _851
REMARK  393  A    between atoms: _851  and  _852
REMARK  394  A    between atoms: _852  and  _853
REMARK  395  A    between atoms: _856  and  _857
REMARK  396  A    between atoms: _857  and  _858
REMARK  397  A    between atoms: _861  and  _862
REMARK  398  A    between atoms: _862  and  _863
REMARK  399  A    between atoms: _862  and  _865
REMARK  400  A    between atoms: _865  and  _866
REMARK  401  A    between atoms: _869  and  _870
REMARK  402  A    between atoms: _870  and  _871
REMARK  403  A    between atoms: _870  and  _873
REMARK  404  A    between atoms: _873  and  _874
REMARK  405  A    between atoms: _874  and  _875
REMARK  406  A    between atoms: _878  and  _879
REMARK  407  A    between atoms: _879  and  _880
REMARK  408  A    between atoms: _883  and  _884
REMARK  409  A    between atoms: _884  and  _885
REMARK  410  A    between atoms: _887  and  _888
REMARK  411  A    between atoms: _888  and  _889
REMARK  412  A    between atoms: _892  and  _893
REMARK  413  A    between atoms: _893  and  _894
REMARK  414  A    between atoms: _893  and  _896
REMARK  415  A    between atoms: _896  and  _897
REMARK  416  A    between atoms: _900  and  _901
REMARK  417  A    between atoms: _901  and  _902
REMARK  418  A    between atoms: _901  and  _904
REMARK  419  A    between atoms: _904  and  _905
REMARK  420  A    between atoms: _908  and  _909
REMARK  421  A    between atoms: _909  and  _910
REMARK  422  A    between atoms: _909  and  _912
REMARK  423  A    between atoms: _914  and  _915
REMARK  424  A    between atoms: _915  and  _916
REMARK  425  A    between atoms: _915  and  _918
REMARK  426  A    between atoms: _918  and  _919
REMARK  427  A    between atoms: _919  and  _920
REMARK  428  A    between atoms: _922  and  _923
REMARK  429  A    between atoms: _923  and  _924
REMARK  430  A    between atoms: _923  and  _926
REMARK  431  A    between atoms: _926  and  _927
REMARK  432  A    between atoms: _930  and  _931
REMARK  433  A    between atoms: _931  and  _932
REMARK  434  A    between atoms: _934  and  _935
REMARK  435  A    between atoms: _935  and  _936
REMARK  436  A    between atoms: _935  and  _938
REMARK  437  A    between atoms: _938  and  _939
REMARK  438  A    between atoms: _939  and  _940
REMARK  439  A    between atoms: _943  and  _944
REMARK  440  A    between atoms: _944  and  _945
REMARK  441  A    between atoms: _944  and  _947
REMARK  442  A    between atoms: _947  and  _948
REMARK  443  A    between atoms: _954  and  _955
REMARK  444  A    between atoms: _955  and  _956
REMARK  445  A    between atoms: _958  and  _959
REMARK  446  A    between atoms: _959  and  _960
REMARK  447  A    between atoms: _959  and  _962
REMARK  448  A    between atoms: _965  and  _966
REMARK  449  A    between atoms: _966  and  _967
REMARK  450  A    between atoms: _969  and  _970
REMARK  451  A    between atoms: _970  and  _971
REMARK  452  A    between atoms: _970  and  _973
REMARK  453  A    between atoms: _973  and  _974
REMARK  454  A    between atoms: _980  and  _981
REMARK  455  A    between atoms: _981  and  _982
REMARK  456  A    between atoms: _981  and  _984
REMARK  457  A    between atoms: _984  and  _985
REMARK  458  A    between atoms: _992  and  _993
REMARK  459  A    between atoms: _993  and  _994
REMARK  460  A    between atoms: _993  and  _996
REMARK  461  A    between atoms: _998  and  _999
REMARK  462  A    between atoms: _999  and  _1000
REMARK  463  A    between atoms: _1003  and  _1004
REMARK  464  A    between atoms: _1004  and  _1005
REMARK  465  A    between atoms: _1004  and  _1007
REMARK  466  A    between atoms: _1007  and  _1008
REMARK  467  A    between atoms: _1015  and  _1016
REMARK  468  A    between atoms: _1016  and  _1017
REMARK  469  A    between atoms: _1016  and  _1019
REMARK  470  A    between atoms: _1019  and  _1020
REMARK  471  A    between atoms: _1023  and  _1024
REMARK  472  A    between atoms: _1024  and  _1025
REMARK  473  A    between atoms: _1024  and  _1027
REMARK  474  A    between atoms: _1030  and  _1031
REMARK  475  A    between atoms: _1031  and  _1032
REMARK  476  A    between atoms: _1035  and  _1036
REMARK  477  A    between atoms: _1036  and  _1037
REMARK  478  A    between atoms: _1036  and  _1039
REMARK  479  A    between atoms: _1039  and  _1040
REMARK  480  A    between atoms: _1040  and  _1041
REMARK  481  A    between atoms: _1044  and  _1045
REMARK  482  A    between atoms: _1045  and  _1046
REMARK  483  A    between atoms: _1045  and  _1048
REMARK  484  A    between atoms: _1048  and  _1049
REMARK  485  A    between atoms: _1049  and  _1050
REMARK  486  A    between atoms: _1050  and  _1051
REMARK  487  A    between atoms: _1053  and  _1054
REMARK  488  A    between atoms: _1054  and  _1055
REMARK  489  A    between atoms: _1054  and  _1057
REMARK  490  A    between atoms: _1060  and  _1061
REMARK  491  A    between atoms: _1061  and  _1062
REMARK  492  A    between atoms: _1061  and  _1064
REMARK  493  A    between atoms: _1067  and  _1068
REMARK  494  A    between atoms: _1068  and  _1069
REMARK  495  A    between atoms: _1068  and  _1071
REMARK  496  A    between atoms: _1074  and  _1075
REMARK  497  A    between atoms: _1075  and  _1076
REMARK  498  A    between atoms: _1075  and  _1078
REMARK  499  A    between atoms: _1078  and  _1079
REMARK  500  A    between atoms: _1082  and  _1083
REMARK  501  A    between atoms: _1083  and  _1084
REMARK  502  A    between atoms: _1083  and  _1086
REMARK  503  A    between atoms: _1089  and  _1090
REMARK  504  A    between atoms: _1090  and  _1091
REMARK  505  A    between atoms: _1090  and  _1093
REMARK  506  A    between atoms: _1093  and  _1094
REMARK  507  A    between atoms: _1094  and  _1095
REMARK  508  A    between atoms: _1095  and  _1096
REMARK  509  A    between atoms: _1098  and  _1099
REMARK  510  A    between atoms: _1099  and  _1100
REMARK  511  A    between atoms: _1099  and  _1102
REMARK  512  A    between atoms: _1102  and  _1103
REMARK  513  A    between atoms: _1108  and  _1109
REMARK  514  A    between atoms: _1109  and  _1110
REMARK  515  A    between atoms: _1109  and  _1112
REMARK  516  A    between atoms: _1112  and  _1113
REMARK  517  A    between atoms: _1116  and  _1117
REMARK  518  A    between atoms: _1117  and  _1118
REMARK  519  A    between atoms: _1117  and  _1120
REMARK  520  A    between atoms: _1120  and  _1121
REMARK  521  A    between atoms: _1124  and  _1125
REMARK  522  A    between atoms: _1125  and  _1126
REMARK  523  A    between atoms: _1125  and  _1128
REMARK  524  A    between atoms: _1128  and  _1129
REMARK  525  A    between atoms: _1132  and  _1133
REMARK  526  A    between atoms: _1133  and  _1134
REMARK  527  A    between atoms: _1133  and  _1136
REMARK  528  A    between atoms: _1136  and  _1137
REMARK  529  A    between atoms: _1137  and  _1138
REMARK  530  A    between atoms: _1141  and  _1142
REMARK  531  A    between atoms: _1142  and  _1143
REMARK  532  A    between atoms: _1142  and  _1145
REMARK  533  A    between atoms: _1145  and  _1146
REMARK  534  A    between atoms: _1146  and  _1147
REMARK  535  A    between atoms: _1150  and  _1151
REMARK  536  A    between atoms: _1151  and  _1152
REMARK  537  A    between atoms: _1151  and  _1154
REMARK  538  A    between atoms: _1154  and  _1155
REMARK  539  A    between atoms: _1162  and  _1163
REMARK  540  A    between atoms: _1163  and  _1164
REMARK  541  A    between atoms: _1167  and  _1168
REMARK  542  A    between atoms: _1168  and  _1169
REMARK  543  A    between atoms: _1168  and  _1171
REMARK  544  A    between atoms: _1171  and  _1172
REMARK  545  A    between atoms: _1181  and  _1182
REMARK  546  A    between atoms: _1182  and  _1183
REMARK  547  A    between atoms: _1182  and  _1185
REMARK  548  A    between atoms: _1185  and  _1186
REMARK  549  A    between atoms: _1186  and  _1187
REMARK  550  A    between atoms: _1190  and  _1191
REMARK  551  A    between atoms: _1191  and  _1192
REMARK  552  A    between atoms: _1191  and  _1194
REMARK  553  A    between atoms: _1196  and  _1197
REMARK  554  A    between atoms: _1197  and  _1198
REMARK  555  A    between atoms: _1197  and  _1200
REMARK  556  A    between atoms: _1202  and  _1203
REMARK  557  A    between atoms: _1203  and  _1204
REMARK  558  A    between atoms: _1207  and  _1208
REMARK  559  A    between atoms: _1208  and  _1209
REMARK  560  A    between atoms: _1211  and  _1212
REMARK  561  A    between atoms: _1212  and  _1213
REMARK  562  A    between atoms: _1215  and  _1216
REMARK  563  A    between atoms: _1216  and  _1217
REMARK  564  A    between atoms: _1216  and  _1219
REMARK  565  A    between atoms: _1221  and  _1222
REMARK  566  A    between atoms: _1222  and  _1223
REMARK  567  A    between atoms: _1222  and  _1225
REMARK  568  A    between atoms: _1225  and  _1226
REMARK  569  A    between atoms: _1232  and  _1233
REMARK  570  A    between atoms: _1233  and  _1234
REMARK  571  A    between atoms: _1233  and  _1236
REMARK  572  A    between atoms: _1239  and  _1240
REMARK  573  A    between atoms: _1240  and  _1241
REMARK  574  A    between atoms: _1240  and  _1243
REMARK  575  A    between atoms: _1247  and  _1249
REMARK  576  A    between atoms: _1247  and  _1252
REMARK  577  A    between atoms: _1251  and  _1252
REMARK  578  A    between atoms: _1251  and  _1254
REMARK  579  A    between atoms: _1253  and  _1254
REMARK  580  A    between atoms: _1253  and  _1256
REMARK  581  A    between atoms: _1254  and  _1255
REMARK  582  A    between atoms: _1255  and  _1257
REMARK  583  A    between atoms: _1256  and  _1258
REMARK  584  A    between atoms: _1265  and  _1266
REMARK  585  A    between atoms: _1266  and  _1267
REMARK  586  A    between atoms: _1266  and  _1269
REMARK  587  A    between atoms: _1272  and  _1273
REMARK  588  A    between atoms: _1273  and  _1274
REMARK  589  A    between atoms: _1273  and  _1276
REMARK  590  A    between atoms: _1276  and  _1277
REMARK  591  A    between atoms: _1280  and  _1281
REMARK  592  A    between atoms: _1281  and  _1282
REMARK  593  A    between atoms: _1281  and  _1284
REMARK  594  A    between atoms: _1287  and  _1288
REMARK  595  A    between atoms: _1288  and  _1289
REMARK  596  A    between atoms: _1291  and  _1292
REMARK  597  A    between atoms: _1292  and  _1293
REMARK  598  A    between atoms: _1292  and  _1295
REMARK  599  A    between atoms: _1295  and  _1296
REMARK  600  A    between atoms: _1296  and  _1297
REMARK  601  A    between atoms: _1301  and  _1302
REMARK  602  A    between atoms: _1307  and  _1308
REMARK  603  A    between atoms: _1308  and  _1309
REMARK  604  A    between atoms: _1308  and  _1311
REMARK  605  A    between atoms: _1311  and  _1312
REMARK  606  A    between atoms: _1312  and  _1313
REMARK  607  A    between atoms: _1315  and  _1316
REMARK  608  A    between atoms: _1316  and  _1317
REMARK  609  A    between atoms: _1319  and  _1320
REMARK  610  A    between atoms: _1320  and  _1321
REMARK  611  A    between atoms: _1320  and  _1323
REMARK  612  A    between atoms: _1323  and  _1324
REMARK  613  A    between atoms: _1324  and  _1325
REMARK  614  A    between atoms: _1325  and  _1326
REMARK  615  A    between atoms: _1330  and  _1331
REMARK  616  A    between atoms: _1331  and  _1332
REMARK  617  A    between atoms: _1334  and  _1335
REMARK  618  A    between atoms: _1335  and  _1336
REMARK  619  A    between atoms: _1335  and  _1338
REMARK  620  A    between atoms: _1341  and  _1342
REMARK  621  A    between atoms: _1342  and  _1343
REMARK  622  A    between atoms: _1342  and  _1345
REMARK  623  A    between atoms: _1345  and  _1346
REMARK  624  A    between atoms: _1346  and  _1347
REMARK  625  A    between atoms: _1347  and  _1348
REMARK  626  A    between atoms: _1350  and  _1351
REMARK  627  A    between atoms: _1351  and  _1352
REMARK  628  A    between atoms: _1351  and  _1354
REMARK  629  A    between atoms: _1357  and  _1358
REMARK  630  A    between atoms: _1358  and  _1359
REMARK  631  A    between atoms: _1358  and  _1361
REMARK  632  A    between atoms: _1361  and  _1362
REMARK  633  A    between atoms: _1365  and  _1366
REMARK  634  A    between atoms: _1366  and  _1367
REMARK  635  A    between atoms: _1366  and  _1369
REMARK  636  A    between atoms: _1369  and  _1370
REMARK  637  A    between atoms: _1373  and  _1374
REMARK  638  A    between atoms: _1374  and  _1375
REMARK  639  A    between atoms: _1374  and  _1377
REMARK  640  A    between atoms: _1377  and  _1378
REMARK  641  A    between atoms: _1383  and  _1384
REMARK  642  A    between atoms: _1384  and  _1385
REMARK  643  A    between atoms: _1384  and  _1387
REMARK  644  A    between atoms: _1387  and  _1388
REMARK  645  A    between atoms: _1391  and  _1392
REMARK  646  A    between atoms: _1392  and  _1393
REMARK  647  A    between atoms: _1392  and  _1395
REMARK  648  A    between atoms: _1395  and  _1396
REMARK  649  A    between atoms: _1396  and  _1397
REMARK  650  A    between atoms: _1397  and  _1398
REMARK  651  A    between atoms: _1400  and  _1401
REMARK  652  A    between atoms: _1401  and  _1402
REMARK  653  A    between atoms: _1401  and  _1404
REMARK  654  A    between atoms: _1404  and  _1405
REMARK  655  A    between atoms: _1405  and  _1406
REMARK  656  A    between atoms: _1409  and  _1410
REMARK  657  A    between atoms: _1410  and  _1411
REMARK  658  A    between atoms: _1410  and  _1413
REMARK  659  A    between atoms: _1413  and  _1414
REMARK  660  A    between atoms: _1417  and  _1418
REMARK  661  A    between atoms: _1418  and  _1419
REMARK  662  A    between atoms: _1418  and  _1421
REMARK  663  A    between atoms: _1421  and  _1422
REMARK  664  A    between atoms: _1422  and  _1423
REMARK  665  A    between atoms: _1426  and  _1427
REMARK  666  A    between atoms: _1427  and  _1428
REMARK  667  A    between atoms: _1427  and  _1430
REMARK  668  A    between atoms: _1433  and  _1434
REMARK  669  A    between atoms: _1434  and  _1435
REMARK  670  A    between atoms: _1434  and  _1437
REMARK  671  A    between atoms: _1437  and  _1438
REMARK  672  A    between atoms: _1438  and  _1439
REMARK  673  A    between atoms: _1442  and  _1443
REMARK  674  A    between atoms: _1443  and  _1444
REMARK  675  A    between atoms: _1443  and  _1446
REMARK  676  A    between atoms: _1446  and  _1447
REMARK  677  A    between atoms: _1454  and  _1455
REMARK  678  A    between atoms: _1455  and  _1456
REMARK  679  A    between atoms: _1455  and  _1458
REMARK  680  A    between atoms: _1458  and  _1459
REMARK  681  A    between atoms: _1462  and  _1463
REMARK  682  A    between atoms: _1463  and  _1464
REMARK  683  A    between atoms: _1463  and  _1466
REMARK  684  A    between atoms: _1466  and  _1467
REMARK  685  A    between atoms: _1467  and  _1468
REMARK  686  A    between atoms: _1471  and  _1472
REMARK  687  A    between atoms: _1472  and  _1473
REMARK  688  A    between atoms: _1472  and  _1475
REMARK  689  A    between atoms: _1475  and  _1476
REMARK  690  A    between atoms: _1476  and  _1477
REMARK  691  A    between atoms: _1480  and  _1481
REMARK  692  A    between atoms: _1481  and  _1482
REMARK  693  A    between atoms: _1481  and  _1484
REMARK  694  A    between atoms: _1484  and  _1485
REMARK  695  A    between atoms: _1485  and  _1486
REMARK  696  A    between atoms: _1486  and  _1487
REMARK  697  A    between atoms: _1491  and  _1492
REMARK  698  A    between atoms: _1492  and  _1493
REMARK  699  A    between atoms: _1492  and  _1495
REMARK  700  A    between atoms: _1495  and  _1496
REMARK  701  A    between atoms: _1496  and  _1497
REMARK  702  A    between atoms: _1497  and  _1498
REMARK  703  A    between atoms: _1502  and  _1503
REMARK  704  A    between atoms: _1503  and  _1504
REMARK  705  A    between atoms: _1503  and  _1506
REMARK  706  A    between atoms: _1506  and  _1507
REMARK  707  A    between atoms: _1510  and  _1511
REMARK  708  A    between atoms: _1511  and  _1512
REMARK  709  A    between atoms: _1511  and  _1514
REMARK  710  A    between atoms: _1514  and  _1515
REMARK  711  A    between atoms: _1515  and  _1516
REMARK  712  A    between atoms: _1516  and  _1517
REMARK  713  A    between atoms: _1519  and  _1520
REMARK  714  A    between atoms: _1520  and  _1521
REMARK  715  A    between atoms: _1520  and  _1523
REMARK  716  A    between atoms: _1523  and  _1524
REMARK  717  A    between atoms: _1524  and  _1525
REMARK  718  A    between atoms: _1528  and  _1529
REMARK  719  A    between atoms: _1529  and  _1530
REMARK  720  A    between atoms: _1529  and  _1532
REMARK  721  A    between atoms: _1532  and  _1533
REMARK  722  A    between atoms: _1536  and  _1537
REMARK  723  A    between atoms: _1537  and  _1538
REMARK  724  A    between atoms: _1537  and  _1540
REMARK  725  A    between atoms: _1543  and  _1544
REMARK  726  A    between atoms: _1544  and  _1545
REMARK  727  A    between atoms: _1544  and  _1547
REMARK  728  A    between atoms: _1547  and  _1548
REMARK  729  A    between atoms: _1548  and  _1549
REMARK  730  A    between atoms: _1549  and  _1550
REMARK  731  A    between atoms: _1552  and  _1553
REMARK  732  A    between atoms: _1553  and  _1554
REMARK  733  A    between atoms: _1553  and  _1556
REMARK  734  A    between atoms: _1556  and  _1557
REMARK  735  A    between atoms: _1557  and  _1558
REMARK  736  A    between atoms: _1558  and  _1559
REMARK  737  A    between atoms: _1561  and  _1562
REMARK  738  A    between atoms: _1562  and  _1563
REMARK  739  A    between atoms: _1562  and  _1565
REMARK  740  A    between atoms: _1565  and  _1566
REMARK  741  A    between atoms: _1571  and  _1572
REMARK  742  A    between atoms: _1572  and  _1573
REMARK  743  A    between atoms: _1572  and  _1575
REMARK  744  A    between atoms: _1577  and  _1578
REMARK  745  A    between atoms: _1578  and  _1579
REMARK  746  A    between atoms: _1578  and  _1581
REMARK  747  A    between atoms: _1581  and  _1582
REMARK  748  A    between atoms: _1582  and  _1583
REMARK  749  A    between atoms: _1586  and  _1587
REMARK  750  A    between atoms: _1587  and  _1588
REMARK  751  A    between atoms: _1587  and  _1590
REMARK  752  A    between atoms: _1590  and  _1591
REMARK  753  A    between atoms: _1597  and  _1598
REMARK  754  A    between atoms: _1598  and  _1599
REMARK  755  A    between atoms: _1598  and  _1601
REMARK  756  A    between atoms: _1601  and  _1602
REMARK  757  A    between atoms: _1605  and  _1606
REMARK  758  A    between atoms: _1606  and  _1607
REMARK  759  A    between atoms: _1609  and  _1610
REMARK  760  A    between atoms: _1610  and  _1611
REMARK  761  A    between atoms: _1610  and  _1613
REMARK  762  A    between atoms: _1613  and  _1614
REMARK  763  A    between atoms: _1622  and  _1623
REMARK  764  A    between atoms: _1628  and  _1629
REMARK  765  A    between atoms: _1629  and  _1630
REMARK  766  A    between atoms: _1629  and  _1632
REMARK  767  A    between atoms: _1632  and  _1633
REMARK  768  A    between atoms: _1636  and  _1637
REMARK  769  A    between atoms: _1637  and  _1638
REMARK  770  A    between atoms: _1637  and  _1640
REMARK  771  A    between atoms: _1643  and  _1644
REMARK  772  A    between atoms: _1644  and  _1645
REMARK  773  A    between atoms: _1644  and  _1647
REMARK  774  A    between atoms: _1647  and  _1648
REMARK  775  A    between atoms: _1651  and  _1652
REMARK  776  A    between atoms: _1652  and  _1653
REMARK  777  A    between atoms: _1652  and  _1655
REMARK  778  A    between atoms: _1655  and  _1656
REMARK  779  A    between atoms: _1662  and  _1663
REMARK  780  A    between atoms: _1663  and  _1664
REMARK  781  A    between atoms: _1663  and  _1666
REMARK  782  A    between atoms: _1669  and  _1670
REMARK  783  A    between atoms: _1670  and  _1671
REMARK  784  A    between atoms: _1670  and  _1673
REMARK  785  A    between atoms: _1673  and  _1674
REMARK  786  A    between atoms: _1674  and  _1675
REMARK                            x       y       z     vdW  Elec       q    Type
REMARK                         _______ _______ _______ _____ _____    ______ ____
ROOT
ATOM      1  C   LEU A  25      -9.585  24.347   9.328  0.00  0.00    +0.262 C 
ATOM      2  O   LEU A  25     -10.675  24.666   9.813  0.00  0.00    -0.271 OA
ATOM      3  N   GLU A  26      -9.436  23.969   8.049  0.00  0.00    -0.196 NA
ENDROOT
BRANCH   3   4
ATOM      4  CA  GLU A  26     -10.575  23.925   7.116  0.00  0.00    +0.173 C 
BRANCH   4   5
ATOM      5  C   GLU A  26     -11.347  22.643   7.279  0.00  0.00    +0.262 C 
ATOM      6  N   GLU A  27     -12.681  22.730   7.432  0.00  0.00    -0.196 NA
ATOM      7  O   GLU A  26     -10.754  21.565   7.212  0.00  0.00    -0.271 OA
BRANCH   6   8
ATOM      8  CA  GLU A  27     -13.507  21.548   7.618  0.00  0.00    +0.173 C 
BRANCH   8   9
ATOM      9  C   GLU A  27     -13.305  20.484   6.540  0.00  0.00    +0.262 C 
ATOM     10  O   GLU A  27     -13.161  19.291   6.856  0.00  0.00    -0.271 OA
ATOM     11  N   ARG A  28     -13.306  20.901   5.266  0.00  0.00    -0.196 NA
BRANCH  11  12
ATOM     12  CA  ARG A  28     -13.170  19.916   4.205  0.00  0.00    +0.173 C 
BRANCH  12  13
ATOM     13  C   ARG A  28     -11.822  19.185   4.227  0.00  0.00    +0.262 C 
ATOM     14  N   ARG A  29     -10.765  19.903   4.638  0.00  0.00    -0.196 NA
ATOM     15  O   ARG A  28     -11.752  17.996   3.903  0.00  0.00    -0.271 OA
BRANCH  14  16
ATOM     16  CA  ARG A  29      -9.433  19.331   4.701  0.00  0.00    +0.173 C 
BRANCH  16  17
ATOM     17  C   ARG A  29      -9.348  18.342   5.859  0.00  0.00    +0.262 C 
ATOM     18  N   ILE A  30      -9.900  18.706   7.039  0.00  0.00    -0.196 NA
ATOM     19  O   ARG A  29      -8.848  17.234   5.685  0.00  0.00    -0.271 OA
BRANCH  18  20
ATOM     20  CA  ILE A  30      -9.847  17.781   8.166  0.00  0.00    +0.173 C 
BRANCH  20  21
ATOM     21  C   ILE A  30     -10.682  16.534   7.863  0.00  0.00    +0.262 C 
ATOM     22  O   ILE A  30     -10.238  15.412   8.101  0.00  0.00    -0.271 OA
ATOM     23  N   LYS A  31     -11.883  16.718   7.298  0.00  0.00    -0.196 NA
BRANCH  23  24
ATOM     24  CA  LYS A  31     -12.732  15.578   6.969  0.00  0.00    +0.173 C 
BRANCH  24  25
ATOM     25  C   LYS A  31     -12.014  14.623   6.013  0.00  0.00    +0.262 C 
ATOM     26  O   LYS A  31     -12.083  13.404   6.169  0.00  0.00    -0.271 OA
ATOM     27  N   GLU A  32     -11.322  15.204   5.016  0.00  0.00    -0.196 NA
BRANCH  27  28
ATOM     28  CA  GLU A  32     -10.586  14.422   4.036  0.00  0.00    +0.173 C 
BRANCH  28  29
ATOM     29  C   GLU A  32      -9.504  13.580   4.710  0.00  0.00    +0.262 C 
ATOM     30  N   ILE A  33      -8.745  14.184   5.648  0.00  0.00    -0.196 NA
ATOM     31  O   GLU A  32      -9.379  12.399   4.406  0.00  0.00    -0.271 OA
BRANCH  30  32
ATOM     32  CA  ILE A  33      -7.648  13.455   6.299  0.00  0.00    +0.173 C 
BRANCH  32  33
ATOM     33  C   ILE A  33      -8.169  12.343   7.204  0.00  0.00    +0.262 C 
ATOM     34  N   VAL A  34      -9.272  12.614   7.936  0.00  0.00    -0.196 NA
ATOM     35  O   ILE A  33      -7.587  11.263   7.273  0.00  0.00    -0.271 OA
BRANCH  34  36
ATOM     36  CA  VAL A  34      -9.841  11.619   8.835  0.00  0.00    +0.173 C 
BRANCH  36  37
ATOM     37  C   VAL A  34     -10.347  10.427   8.037  0.00  0.00    +0.262 C 
ATOM     38  O   VAL A  34     -10.090   9.281   8.397  0.00  0.00    -0.271 OA
ATOM     39  N   LYS A  35     -11.013  10.700   6.910  0.00  0.00    -0.196 NA
BRANCH  39  40
ATOM     40  CA  LYS A  35     -11.530   9.644   6.042  0.00  0.00    +0.173 C 
BRANCH  40  41
ATOM     41  C   LYS A  35     -10.381   8.848   5.398  0.00  0.00    +0.262 C 
ATOM     42  O   LYS A  35     -10.506   7.631   5.286  0.00  0.00    -0.271 OA
ATOM     43  N   LYS A  36      -9.273   9.520   4.998  0.00  0.00    -0.196 NA
BRANCH  43  44
ATOM     44  CA  LYS A  36      -8.153   8.838   4.335  0.00  0.00    +0.173 C 
BRANCH  44  45
ATOM     45  C   LYS A  36      -7.345   7.943   5.290  0.00  0.00    +0.262 C 
ATOM     46  N   HIS A  37      -7.043   8.455   6.507  0.00  0.00    -0.196 NA
ATOM     47  O   LYS A  36      -7.024   6.794   4.955  0.00  0.00    -0.271 OA
BRANCH  46  48
ATOM     48  CA  HIS A  37      -6.119   7.771   7.413  0.00  0.00    +0.179 C 
BRANCH  48  49
ATOM     49  C   HIS A  37      -6.667   7.225   8.718  0.00  0.00    +0.262 C 
ATOM     50  O   HIS A  37      -5.970   6.421   9.359  0.00  0.00    -0.271 OA
ATOM     51  N   SER A  38      -7.851   7.668   9.148  0.00  0.00    -0.194 NA
BRANCH  51  52
ATOM     52  CA  SER A  38      -8.395   7.276  10.442  0.00  0.00    +0.205 C 
BRANCH  52  53
ATOM     53  C   SER A  38      -9.789   6.665  10.342  0.00  0.00    +0.264 C 
ATOM     54  O   SER A  38     -10.569   6.745  11.290  0.00  0.00    -0.271 OA
ATOM     55  N   GLN A  39     -10.079   5.975   9.238  0.00  0.00    -0.196 NA
BRANCH  55  56
ATOM     56  CA  GLN A  39     -11.409   5.417   9.011  0.00  0.00    +0.173 C 
BRANCH  56  57
ATOM     57  C   GLN A  39     -11.756   4.192   9.886  0.00  0.00    +0.262 C 
ATOM     58  N   PHE A  40     -10.758   3.512  10.496  0.00  0.00    -0.196 NA
ATOM     59  O   GLN A  39     -12.943   3.894  10.026  0.00  0.00    -0.271 OA
BRANCH  58  60
ATOM     60  CA  PHE A  40     -11.012   2.326  11.329  0.00  0.00    +0.177 C 
BRANCH  60  61
ATOM     61  C   PHE A  40     -10.726   2.518  12.826  0.00  0.00    +0.262 C 
ATOM     62  O   PHE A  40     -10.391   1.573  13.552  0.00  0.00    -0.271 OA
ATOM     63  N   ILE A  41     -10.807   3.754  13.282  0.00  0.00    -0.196 NA
BRANCH  63  64
ATOM     64  CA  ILE A  41     -10.633   4.025  14.704  0.00  0.00    +0.173 C 
BRANCH  64  65
ATOM     65  C   ILE A  41     -11.943   3.676  15.455  0.00  0.00    +0.262 C 
ATOM     66  N   GLY A  42     -11.827   2.912  16.524  0.00  0.00    -0.194 NA
ATOM     67  O   ILE A  41     -13.032   4.100  15.042  0.00  0.00    -0.271 OA
BRANCH  66  68
ATOM     68  CA  GLY A  42     -12.965   2.388  17.269  0.00  0.00    +0.201 C 
BRANCH  68  69
ATOM     69  C   GLY A  42     -13.666   3.286  18.256  0.00  0.00    +0.264 C 
ATOM     70  O   GLY A  42     -14.299   2.804  19.193  0.00  0.00    -0.271 OA
ATOM     71  N   TYR A  43     -13.558   4.597  18.059  0.00  0.00    -0.196 NA
BRANCH  71  72
ATOM     72  CA  TYR A  43     -14.203   5.580  18.922  0.00  0.00    +0.176 C 
BRANCH  72  73
ATOM     73  C   TYR A  43     -14.782   6.656  18.053  0.00  0.00    +0.246 C 
ATOM     74  N   PRO A  44     -15.876   7.333  18.487  0.00  0.00    -0.272 N 
ATOM     75  CD  PRO A  44     -16.678   7.104  19.713  0.00  0.00    +0.094 C 
ATOM     76  CG  PRO A  44     -17.626   8.276  19.755  0.00  0.00    +0.024 C 
ATOM     77  CB  PRO A  44     -17.741   8.804  18.368  0.00  0.00    +0.031 C 
ATOM     78  CA  PRO A  44     -16.428   8.416  17.659  0.00  0.00    +0.154 C 
ATOM     79  O   TYR A  43     -14.199   6.937  17.002  0.00  0.00    -0.273 OA
BRANCH  78  80
ATOM     80  C   PRO A  44     -15.462   9.593  17.579  0.00  0.00    +0.260 C 
ATOM     81  O   PRO A  44     -14.912  10.011  18.609  0.00  0.00    -0.272 OA
ATOM     82  N   ILE A  45     -15.235  10.096  16.372  0.00  0.00    -0.196 NA
BRANCH  82  83
ATOM     83  CA  ILE A  45     -14.370  11.247  16.121  0.00  0.00    +0.173 C 
BRANCH  83  84
ATOM     84  C   ILE A  45     -15.325  12.340  15.659  0.00  0.00    +0.262 C 
ATOM     85  N   THR A  46     -15.478  13.395  16.469  0.00  0.00    -0.194 NA
ATOM     86  O   ILE A  45     -15.950  12.202  14.610  0.00  0.00    -0.271 OA
BRANCH  85  87
ATOM     87  CA  THR A  46     -16.412  14.460  16.129  0.00  0.00    +0.203 C 
BRANCH  87  88
ATOM     88  C   THR A  46     -15.629  15.677  15.711  0.00  0.00    +0.264 C 
ATOM     89  O   THR A  46     -14.808  16.133  16.487  0.00  0.00    -0.271 OA
ATOM     90  N   LEU A  47     -15.858  16.170  14.495  0.00  0.00    -0.196 NA
BRANCH  90  91
ATOM     91  CA  LEU A  47     -15.225  17.368  13.996  0.00  0.00    +0.173 C 
BRANCH  91  92
ATOM     92  C   LEU A  47     -16.156  18.526  14.349  0.00  0.00    +0.262 C 
ATOM     93  N   PHE A  48     -15.697  19.402  15.257  0.00  0.00    -0.196 NA
ATOM     94  O   LEU A  47     -17.267  18.606  13.807  0.00  0.00    -0.271 OA
BRANCH  93  95
ATOM     95  CA  PHE A  48     -16.500  20.558  15.652  0.00  0.00    +0.177 C 
BRANCH  95  96
ATOM     96  C   PHE A  48     -16.512  21.591  14.519  0.00  0.00    +0.262 C 
ATOM     97  N   VAL A  49     -17.613  22.352  14.445  0.00  0.00    -0.196 NA
ATOM     98  O   PHE A  48     -15.556  21.722  13.750  0.00  0.00    -0.271 OA
BRANCH  97  99
ATOM     99  CA  VAL A  49     -17.933  23.373  13.442  0.00  0.00    +0.173 C 
BRANCH  99 100
ATOM    100  CB  VAL A  49     -19.503  23.310  13.204  0.00  0.00    +0.029 C 
ATOM    101  CG2 VAL A  49     -19.965  21.909  12.799  0.00  0.00    +0.002 C 
ATOM    102  CG1 VAL A  49     -19.986  24.336  12.180  0.00  0.00    +0.002 C 
ENDBRANCH  99 100
BRANCH  99 103
ATOM    103  C   VAL A  49     -17.538  24.738  14.044  0.00  0.00    +0.262 C 
ATOM    104  O   VAL A  49     -17.583  24.906  15.262  0.00  0.00    -0.271 OA
ATOM    105  N   GLU A  50     -17.246  25.724  13.202  0.00  0.00    -0.198 NA
BRANCH 105 106
ATOM    106  CA  GLU A  50     -16.960  27.073  13.708  0.00  0.00    +0.160 C 
BRANCH 106 107
ATOM    107  C   GLU A  50     -18.112  28.046  13.422  0.00  0.00    +0.229 C 
ATOM    108  O   GLU A  50     -18.702  27.945  12.329  0.00  0.00    -0.286 OA
ENDBRANCH 106 107
BRANCH 106 109
ATOM    109  CB  GLU A  50     -15.638  27.593  13.166  0.00  0.00    +0.041 C 
BRANCH 109 110
ATOM    110  CG  GLU A  50     -14.464  26.785  13.679  0.00  0.00    +0.116 C 
BRANCH 110 111
ATOM    111  CD  GLU A  50     -13.164  27.302  13.120  0.00  0.00    +0.365 C 
ATOM    112  OE2 GLU A  50     -12.740  28.402  13.549  0.00  0.00    -0.246 OA
ATOM    113  OE1 GLU A  50     -12.623  26.660  12.189  0.00  0.00    -0.246 OA
ENDBRANCH 110 111
ENDBRANCH 109 110
ENDBRANCH 106 109
ENDBRANCH 105 106
ENDBRANCH  99 103
ENDBRANCH  97  99
ENDBRANCH  95  96
BRANCH  95 114
ATOM    114  CB  PHE A  48     -15.919  21.196  16.903  0.00  0.00    +0.057 C 
BRANCH 114 115
ATOM    115  CG  PHE A  48     -16.164  20.500  18.220  0.00  0.00    -0.020 A 
ATOM    116  CD2 PHE A  48     -16.176  21.220  19.413  0.00  0.00    -0.004 A 
ATOM    117  CE2 PHE A  48     -16.370  20.582  20.625  0.00  0.00    -0.000 A 
ATOM    118  CZ  PHE A  48     -16.527  19.214  20.672  0.00  0.00    -0.000 A 
ATOM    119  CE1 PHE A  48     -16.546  18.490  19.499  0.00  0.00    -0.000 A 
ATOM    120  CD1 PHE A  48     -16.354  19.128  18.283  0.00  0.00    -0.004 A 
ENDBRANCH 114 115
ENDBRANCH  95 114
ENDBRANCH  93  95
ENDBRANCH  91  92
BRANCH  91 121
ATOM    121  CB  LEU A  47     -15.000  17.278  12.472  0.00  0.00    +0.031 C 
BRANCH 121 122
ATOM    122  CG  LEU A  47     -14.493  18.521  11.779  0.00  0.00    +0.002 C 
ATOM    123  CD2 LEU A  47     -13.206  19.105  12.473  0.00  0.00    +0.000 C 
ATOM    124  CD1 LEU A  47     -14.197  18.196  10.304  0.00  0.00    +0.000 C 
ENDBRANCH 121 122
ENDBRANCH  91 121
ENDBRANCH  90  91
ENDBRANCH  87  88
BRANCH  87 125
ATOM    125  CB  THR A  46     -17.325  14.812  17.326  0.00  0.00    +0.181 C 
ATOM    126  OG1 THR A  46     -18.031  13.641  17.740  0.00  0.00    -0.221 OA
ATOM    127  CG2 THR A  46     -18.353  15.926  16.988  0.00  0.00    +0.038 C 
ENDBRANCH  87 125
ENDBRANCH  85  87
ENDBRANCH  83  84
BRANCH  83 128
ATOM    128  CB  ILE A  45     -13.317  10.950  15.041  0.00  0.00    +0.029 C 
ATOM    129  CG2 ILE A  45     -12.505  12.220  14.783  0.00  0.00    +0.002 C 
BRANCH 128 130
ATOM    130  CG1 ILE A  45     -12.380   9.782  15.459  0.00  0.00    +0.002 C 
ATOM    131  CD1 ILE A  45     -11.478   9.279  14.281  0.00  0.00    +0.000 C 
ENDBRANCH 128 130
ENDBRANCH  83 128
ENDBRANCH  82  83
ENDBRANCH  78  80
ENDBRANCH  72  73
BRANCH  72 132
ATOM    132  CB  TYR A  43     -13.153   6.199  19.883  0.00  0.00    +0.057 C 
BRANCH 132 133
ATOM    133  CG  TYR A  43     -12.543   5.154  20.777  0.00  0.00    -0.020 A 
ATOM    134  CD2 TYR A  43     -13.222   4.685  21.897  0.00  0.00    -0.001 A 
ATOM    135  CE2 TYR A  43     -12.681   3.702  22.709  0.00  0.00    +0.042 A 
ATOM    136  CZ  TYR A  43     -11.474   3.116  22.369  0.00  0.00    +0.196 A 
ATOM    137  OH  TYR A  43     -10.992   2.118  23.164  0.00  0.00    -0.287 OA
ATOM    138  CE1 TYR A  43     -10.786   3.546  21.249  0.00  0.00    +0.042 A 
ATOM    139  CD1 TYR A  43     -11.320   4.566  20.461  0.00  0.00    -0.001 A 
ENDBRANCH 132 133
ENDBRANCH  72 132
ENDBRANCH  71  72
ENDBRANCH  68  69
ENDBRANCH  66  68
ENDBRANCH  64  65
BRANCH  64 140
ATOM    140  CB  ILE A  41     -10.217   5.520  14.867  0.00  0.00    +0.029 C 
ATOM    141  CG2 ILE A  41     -10.313   5.991  16.338  0.00  0.00    +0.002 C 
BRANCH 140 142
ATOM    142  CG1 ILE A  41      -8.801   5.772  14.269  0.00  0.00    +0.002 C 
ATOM    143  CD1 ILE A  41      -7.575   5.103  15.042  0.00  0.00    +0.000 C 
ENDBRANCH 140 142
ENDBRANCH  64 140
ENDBRANCH  63  64
ENDBRANCH  60  61
BRANCH  60 144
ATOM    144  CB  PHE A  40     -10.239   1.102  10.788  0.00  0.00    +0.057 C 
BRANCH 144 145
ATOM    145  CG  PHE A  40     -10.687   0.691   9.405  0.00  0.00    -0.020 A 
ATOM    146  CD2 PHE A  40     -11.943   0.134   9.200  0.00  0.00    -0.004 A 
ATOM    147  CE2 PHE A  40     -12.366  -0.219   7.910  0.00  0.00    -0.000 A 
ATOM    148  CZ  PHE A  40     -11.529  -0.032   6.833  0.00  0.00    -0.000 A 
ATOM    149  CE1 PHE A  40     -10.279   0.518   7.018  0.00  0.00    -0.000 A 
ATOM    150  CD1 PHE A  40      -9.851   0.866   8.306  0.00  0.00    -0.004 A 
ENDBRANCH 144 145
ENDBRANCH  60 144
ENDBRANCH  58  60
ENDBRANCH  56  57
BRANCH  56 151
ATOM    151  CB  GLN A  39     -11.640   5.117   7.509  0.00  0.00    +0.041 C 
BRANCH 151 152
ATOM    152  CG  GLN A  39     -10.729   4.046   6.939  0.00  0.00    +0.091 C 
BRANCH 152 153
ATOM    153  CD  GLN A  39      -9.427   4.549   6.355  0.00  0.00    +0.261 C 
ATOM    154  OE1 GLN A  39      -8.567   5.122   7.045  0.00  0.00    -0.272 OA
ATOM    155  NE2 GLN A  39      -9.210   4.240   5.082  0.00  0.00    -0.088 NA
ENDBRANCH 152 153
ENDBRANCH 151 152
ENDBRANCH  56 151
ENDBRANCH  55  56
ENDBRANCH  52  53
BRANCH  52 156
ATOM    156  CB  SER A  38      -8.407   8.500  11.371  0.00  0.00    +0.213 C 
ATOM    157  OG  SER A  38      -7.109   9.063  11.520  0.00  0.00    -0.218 OA
ENDBRANCH  52 156
ENDBRANCH  51  52
ENDBRANCH  48  49
BRANCH  48 158
ATOM    158  CB  HIS A  37      -4.976   8.729   7.751  0.00  0.00    +0.079 C 
BRANCH 158 159
ATOM    159  CG  HIS A  37      -4.104   9.064   6.594  0.00  0.00    +0.082 A 
ATOM    160  ND1 HIS A  37      -3.933  10.370   6.173  0.00  0.00    -0.227 NA
ATOM    161  CE1 HIS A  37      -3.114  10.304   5.137  0.00  0.00    +0.199 A 
ATOM    162  NE2 HIS A  37      -2.738   9.050   4.889  0.00  0.00    -0.221 NA
ATOM    163  CD2 HIS A  37      -3.379   8.248   5.796  0.00  0.00    +0.115 A 
ENDBRANCH 158 159
ENDBRANCH  48 158
ENDBRANCH  46  48
ENDBRANCH  44  45
BRANCH  44 164
ATOM    164  CB  LYS A  36      -7.232   9.895   3.704  0.00  0.00    +0.031 C 
BRANCH 164 165
ATOM    165  CG  LYS A  36      -6.003   9.337   2.991  0.00  0.00    +0.004 C 
BRANCH 165 166
ATOM    166  CD  LYS A  36      -5.202  10.435   2.334  0.00  0.00    +0.021 C 
BRANCH 166 167
ATOM    167  CE  LYS A  36      -4.033   9.878   1.553  0.00  0.00    +0.109 C 
ATOM    168  NZ  LYS A  36      -3.201  10.961   0.959  0.00  0.00    -0.131 NA
ENDBRANCH 166 167
ENDBRANCH 165 166
ENDBRANCH 164 165
ENDBRANCH  44 164
ENDBRANCH  43  44
ENDBRANCH  40  41
BRANCH  40 169
ATOM    169  CB  LYS A  35     -12.428  10.256   4.961  0.00  0.00    +0.031 C 
BRANCH 169 170
ATOM    170  CG  LYS A  35     -13.131   9.235   4.066  0.00  0.00    +0.004 C 
BRANCH 170 171
ATOM    171  CD  LYS A  35     -13.880   9.927   2.925  0.00  0.00    +0.021 C 
BRANCH 171 172
ATOM    172  CE  LYS A  35     -14.630   8.956   2.045  0.00  0.00    +0.109 C 
ATOM    173  NZ  LYS A  35     -15.529   9.669   1.098  0.00  0.00    -0.131 NA
ENDBRANCH 171 172
ENDBRANCH 170 171
ENDBRANCH 169 170
ENDBRANCH  40 169
ENDBRANCH  39  40
ENDBRANCH  36  37
BRANCH  36 174
ATOM    174  CB  VAL A  34     -10.966  12.247   9.718  0.00  0.00    +0.029 C 
ATOM    175  CG2 VAL A  34     -10.396  13.289  10.686  0.00  0.00    +0.002 C 
ATOM    176  CG1 VAL A  34     -11.730  11.179  10.503  0.00  0.00    +0.002 C 
ENDBRANCH  36 174
ENDBRANCH  34  36
ENDBRANCH  32  33
BRANCH  32 177
ATOM    177  CB  ILE A  33      -6.755  14.458   7.062  0.00  0.00    +0.029 C 
ATOM    178  CG2 ILE A  33      -5.661  13.727   7.855  0.00  0.00    +0.002 C 
BRANCH 177 179
ATOM    179  CG1 ILE A  33      -6.123  15.470   6.078  0.00  0.00    +0.002 C 
ATOM    180  CD1 ILE A  33      -5.637  16.721   6.781  0.00  0.00    +0.000 C 
ENDBRANCH 177 179
ENDBRANCH  32 177
ENDBRANCH  30  32
ENDBRANCH  28  29
BRANCH  28 181
ATOM    181  CB  GLU A  32      -9.966  15.371   3.002  0.00  0.00    +0.043 C 
BRANCH 181 182
ATOM    182  CG  GLU A  32      -9.048  14.694   2.000  0.00  0.00    +0.116 C 
BRANCH 182 183
ATOM    183  CD  GLU A  32      -8.311  15.676   1.118  0.00  0.00    +0.365 C 
ATOM    184  OE2 GLU A  32      -7.769  16.660   1.672  0.00  0.00    -0.246 OA
ATOM    185  OE1 GLU A  32      -8.347  15.507  -0.131  0.00  0.00    -0.246 OA
ENDBRANCH 182 183
ENDBRANCH 181 182
ENDBRANCH  28 181
ENDBRANCH  27  28
ENDBRANCH  24  25
BRANCH  24 186
ATOM    186  CB  LYS A  31     -14.019  16.052   6.282  0.00  0.00    +0.031 C 
BRANCH 186 187
ATOM    187  CG  LYS A  31     -15.087  16.526   7.225  0.00  0.00    +0.004 C 
BRANCH 187 188
ATOM    188  CD  LYS A  31     -16.295  16.986   6.414  0.00  0.00    +0.021 C 
BRANCH 188 189
ATOM    189  CE  LYS A  31     -17.372  17.545   7.308  0.00  0.00    +0.109 C 
ATOM    190  NZ  LYS A  31     -18.345  18.366   6.537  0.00  0.00    -0.131 NA
ENDBRANCH 188 189
ENDBRANCH 187 188
ENDBRANCH 186 187
ENDBRANCH  24 186
ENDBRANCH  23  24
ENDBRANCH  20  21
BRANCH  20 191
ATOM    191  CB  ILE A  30     -10.315  18.476   9.467  0.00  0.00    +0.029 C 
ATOM    192  CG2 ILE A  30     -10.366  17.453  10.627  0.00  0.00    +0.002 C 
BRANCH 191 193
ATOM    193  CG1 ILE A  30      -9.398  19.674   9.830  0.00  0.00    +0.002 C 
ATOM    194  CD1 ILE A  30     -10.085  20.707  10.842  0.00  0.00    +0.000 C 
ENDBRANCH 191 193
ENDBRANCH  20 191
ENDBRANCH  18  20
ENDBRANCH  16  17
BRANCH  16 195
ATOM    195  CB  ARG A  29      -8.396  20.447   4.837  0.00  0.00    +0.035 C 
BRANCH 195 196
ATOM    196  CG  ARG A  29      -6.933  19.984   4.838  0.00  0.00    +0.049 C 
BRANCH 196 197
ATOM    197  CD  ARG A  29      -6.514  19.393   3.487  0.00  0.00    +0.220 C 
BRANCH 197 198
ATOM    198  NE  ARG A  29      -5.065  19.146   3.430  0.00  0.00    -0.087 NA
ATOM    199  CZ  ARG A  29      -4.479  17.952   3.282  0.00  0.00    +0.535 C 
ATOM    200  NH2 ARG A  29      -3.152  17.854   3.258  0.00  0.00    +0.135 NA
ATOM    201  NH1 ARG A  29      -5.204  16.868   3.058  0.00  0.00    +0.135 NA
ENDBRANCH 197 198
ENDBRANCH 196 197
ENDBRANCH 195 196
ENDBRANCH  16 195
ENDBRANCH  14  16
ENDBRANCH  12  13
BRANCH  12 202
ATOM    202  CB  ARG A  28     -13.460  20.508   2.823  0.00  0.00    +0.035 C 
BRANCH 202 203
ATOM    203  CG  ARG A  28     -12.607  21.702   2.470  0.00  0.00    +0.049 C 
BRANCH 203 204
ATOM    204  CD  ARG A  28     -13.301  22.461   1.360  0.00  0.00    +0.220 C 
BRANCH 204 205
ATOM    205  NE  ARG A  28     -12.394  23.389   0.695  0.00  0.00    -0.087 NA
ATOM    206  CZ  ARG A  28     -12.586  23.851  -0.534  0.00  0.00    +0.535 C 
ATOM    207  NH2 ARG A  28     -11.711  24.684  -1.078  0.00  0.00    +0.135 NA
ATOM    208  NH1 ARG A  28     -13.646  23.465  -1.238  0.00  0.00    +0.135 NA
ENDBRANCH 204 205
ENDBRANCH 203 204
ENDBRANCH 202 203
ENDBRANCH  12 202
ENDBRANCH  11  12
ENDBRANCH   8   9
BRANCH   8 209
ATOM    209  CB  GLU A  27     -14.993  21.946   7.733  0.00  0.00    +0.043 C 
BRANCH 209 210
ATOM    210  CG  GLU A  27     -15.899  20.799   8.139  0.00  0.00    +0.116 C 
BRANCH 210 211
ATOM    211  CD  GLU A  27     -17.389  21.089   8.170  0.00  0.00    +0.365 C 
ATOM    212  OE2 GLU A  27     -18.111  20.372   8.901  0.00  0.00    -0.246 OA
ATOM    213  OE1 GLU A  27     -17.843  21.999   7.437  0.00  0.00    -0.246 OA
ENDBRANCH 210 211
ENDBRANCH 209 210
ENDBRANCH   8 209
ENDBRANCH   6   8
ENDBRANCH   4   5
BRANCH   4 214
ATOM    214  CB  GLU A  26     -10.092  24.017   5.655  0.00  0.00    +0.043 C 
BRANCH 214 215
ATOM    215  CG  GLU A  26      -9.506  25.369   5.269  0.00  0.00    +0.116 C 
BRANCH 215 216
ATOM    216  CD  GLU A  26      -8.784  25.429   3.932  0.00  0.00    +0.365 C 
ATOM    217  OE2 GLU A  26      -8.000  26.385   3.733  0.00  0.00    -0.246 OA
ATOM    218  OE1 GLU A  26      -8.987  24.523   3.088  0.00  0.00    -0.246 OA
ENDBRANCH 215 216
ENDBRANCH 214 215
ENDBRANCH   4 214
ENDBRANCH   3   4
BRANCH   1 219
ATOM    219  CA  LEU A  25      -8.334  24.397  10.194  0.00  0.00    +0.173 C 
BRANCH 219 222
ATOM    220  C   TYR A  24      -6.696  22.618   9.702  0.00  0.00    +0.262 C 
ATOM    221  O   TYR A  24      -7.073  21.918  10.638  0.00  0.00    -0.271 OA
ATOM    222  N   LEU A  25      -7.210  23.834   9.452  0.00  0.00    -0.196 NA
BRANCH 220 223
ATOM    223  CA  TYR A  24      -5.614  22.103   8.745  0.00  0.00    +0.177 C 
BRANCH 223 225
ATOM    224  C   GLU A  23      -5.922  23.396   6.683  0.00  0.00    +0.262 C 
ATOM    225  N   TYR A  24      -5.173  23.118   7.773  0.00  0.00    -0.196 NA
ATOM    226  O   GLU A  23      -7.005  22.860   6.460  0.00  0.00    -0.271 OA
BRANCH 224 227
ATOM    227  CA  GLU A  23      -5.342  24.425   5.703  0.00  0.00    +0.173 C 
BRANCH 227 230
ATOM    228  C   THR A  22      -4.826  26.094   7.392  0.00  0.00    +0.264 C 
ATOM    229  O   THR A  22      -6.003  26.091   7.763  0.00  0.00    -0.271 OA
ATOM    230  N   GLU A  23      -4.385  25.301   6.391  0.00  0.00    -0.196 NA
BRANCH 228 231
ATOM    231  CA  THR A  22      -3.824  26.936   8.173  0.00  0.00    +0.203 C 
BRANCH 231 234
ATOM    232  C   GLN A  21      -1.786  25.581   8.101  0.00  0.00    +0.262 C 
ATOM    233  O   GLN A  21      -2.348  24.638   8.687  0.00  0.00    -0.271 OA
ATOM    234  N   THR A  22      -2.432  26.718   7.779  0.00  0.00    -0.194 NA
BRANCH 232 235
ATOM    235  CA  GLN A  21      -0.329  25.461   7.693  0.00  0.00    +0.173 C 
BRANCH 235 237
ATOM    236  C   ASP A  20       0.815  27.164   6.342  0.00  0.00    +0.262 C 
ATOM    237  N   GLN A  21       0.319  26.773   7.543  0.00  0.00    -0.196 NA
ATOM    238  O   ASP A  20       0.699  26.485   5.318  0.00  0.00    -0.271 OA
BRANCH 236 239
ATOM    239  CA  ASP A  20       1.523  28.513   6.279  0.00  0.00    +0.184 C 
BRANCH 239 242
ATOM    240  C   GLU A  19       0.898  29.946   8.178  0.00  0.00    +0.262 C 
ATOM    241  O   GLU A  19      -0.192  30.247   7.681  0.00  0.00    -0.271 OA
ATOM    242  N   ASP A  20       1.766  29.117   7.589  0.00  0.00    -0.196 NA
BRANCH 240 243
ATOM    243  CA  GLU A  19       1.299  30.535   9.512  0.00  0.00    +0.173 C 
BRANCH 243 245
ATOM    244  C   LYS A  18       1.626  28.407  10.709  0.00  0.00    +0.262 C 
ATOM    245  N   GLU A  19       2.061  29.631  10.368  0.00  0.00    -0.196 NA
ATOM    246  O   LYS A  18       0.564  27.927  10.285  0.00  0.00    -0.271 OA
BRANCH 244 247
ATOM    247  CA  LYS A  18       2.516  27.609  11.664  0.00  0.00    +0.173 C 
BRANCH 247 250
ATOM    248  C   LEU A  17       0.677  27.174  13.235  0.00  0.00    +0.262 C 
ATOM    249  O   LEU A  17       0.546  28.365  13.545  0.00  0.00    -0.271 OA
ATOM    250  N   LYS A  18       1.609  26.715  12.378  0.00  0.00    -0.196 NA
BRANCH 248 251
ATOM    251  CA  LEU A  17      -0.263  26.131  13.750  0.00  0.00    +0.173 C 
BRANCH 251 254
ATOM    252  C   HIS A  16       0.068  26.309  16.147  0.00  0.00    +0.262 C 
ATOM    253  O   HIS A  16       1.276  26.127  16.046  0.00  0.00    -0.271 OA
ATOM    254  N   LEU A  17      -0.752  26.345  15.100  0.00  0.00    -0.196 NA
BRANCH 252 255
ATOM    255  CA  HIS A  16      -0.576  26.311  17.521  0.00  0.00    +0.179 C 
BRANCH 255 257
ATOM    256  C   LEU A  15      -1.646  24.099  17.564  0.00  0.00    +0.262 C 
ATOM    257  N   HIS A  16      -0.603  24.894  17.894  0.00  0.00    -0.196 NA
ATOM    258  O   LEU A  15      -2.658  24.520  17.002  0.00  0.00    -0.271 OA
BRANCH 256 259
ATOM    259  CA  LEU A  15      -1.539  22.625  17.957  0.00  0.00    +0.173 C 
BRANCH 259 262
ATOM    260  C   ILE A  14      -2.246  22.330  20.268  0.00  0.00    +0.262 C 
ATOM    261  O   ILE A  14      -1.128  22.549  20.729  0.00  0.00    -0.271 OA
ATOM    262  N   LEU A  15      -2.551  22.321  18.963  0.00  0.00    -0.196 NA
BRANCH 260 263
ATOM    263  CA  ILE A  14      -3.380  22.009  21.229  0.00  0.00    +0.173 C 
BRANCH 263 265
ATOM    264  C   VAL A  13      -3.631  19.574  21.509  0.00  0.00    +0.262 C 
ATOM    265  N   ILE A  14      -3.093  20.750  21.907  0.00  0.00    -0.196 NA
ATOM    266  O   VAL A  13      -4.461  19.466  20.608  0.00  0.00    -0.271 OA
BRANCH 264 267
ATOM    267  CA  VAL A  13      -3.265  18.363  22.288  0.00  0.00    +0.173 C 
BRANCH 267 268
ATOM    268  CB  VAL A  13      -2.684  17.258  21.392  0.00  0.00    +0.029 C 
ATOM    269  CG2 VAL A  13      -2.310  16.051  22.233  0.00  0.00    +0.002 C 
ATOM    270  CG1 VAL A  13      -1.447  17.778  20.644  0.00  0.00    +0.002 C 
ENDBRANCH 267 268
BRANCH 267 273
ATOM    271  C   LYS A  12      -4.673  18.102  24.293  0.00  0.00    +0.262 C 
ATOM    272  O   LYS A  12      -3.816  18.562  25.052  0.00  0.00    -0.271 OA
ATOM    273  N   VAL A  13      -4.482  17.930  22.971  0.00  0.00    -0.196 NA
BRANCH 271 274
ATOM    274  CA  LYS A  12      -6.012  17.657  24.888  0.00  0.00    +0.173 C 
BRANCH 274 276
ATOM    275  C   THR A  11      -6.161  15.456  25.956  0.00  0.00    +0.264 C 
ATOM    276  N   LYS A  12      -5.700  16.710  25.941  0.00  0.00    -0.196 NA
ATOM    277  O   THR A  11      -6.968  15.024  25.117  0.00  0.00    -0.271 OA
BRANCH 275 278
ATOM    278  CA  THR A  11      -5.624  14.574  27.039  0.00  0.00    +0.203 C 
BRANCH 278 281
ATOM    279  C   GLY A  10      -6.761  13.408  28.851  0.00  0.00    +0.264 C 
ATOM    280  O   GLY A  10      -6.010  13.832  29.736  0.00  0.00    -0.271 OA
ATOM    281  N   THR A  11      -6.687  13.749  27.581  0.00  0.00    -0.194 NA
BRANCH 279 282
ATOM    282  CA  GLY A  10      -7.901  12.499  29.206  0.00  0.00    +0.201 C 
BRANCH 282 284
ATOM    283  C   ARG A   9      -9.532  12.600  31.022  0.00  0.00    +0.262 C 
ATOM    284  N   GLY A  10      -8.247  12.545  30.629  0.00  0.00    -0.194 NA
ATOM    285  O   ARG A   9     -10.493  12.692  30.245  0.00  0.00    -0.271 OA
BRANCH 283 286
ATOM    286  CA  ARG A   9      -9.781  12.531  32.527  0.00  0.00    +0.173 C 
BRANCH 286 289
ATOM    287  C   GLY A   8     -11.145  13.852  34.115  0.00  0.00    +0.264 C 
ATOM    288  O   GLY A   8     -10.602  13.354  35.102  0.00  0.00    -0.271 OA
ATOM    289  N   ARG A   9     -10.812  13.521  32.827  0.00  0.00    -0.196 NA
BRANCH 287 290
ATOM    290  CA  GLY A   8     -12.174  14.943  34.286  0.00  0.00    +0.201 C 
BRANCH 290 292
ATOM    291  C   MET A   7     -11.781  16.565  32.582  0.00  0.00    +0.262 C 
ATOM    292  N   GLY A   8     -11.626  16.218  33.839  0.00  0.00    -0.194 NA
ATOM    293  O   MET A   7     -12.270  15.809  31.739  0.00  0.00    -0.271 OA
BRANCH 291 294
ATOM    294  CA  MET A   7     -11.156  17.859  32.118  0.00  0.00    +0.174 C 
BRANCH 294 297
ATOM    295  C   PRO A   6     -11.604  19.821  33.588  0.00  0.00    +0.260 C 
ATOM    296  O   PRO A   6     -12.747  20.008  33.165  0.00  0.00    -0.272 OA
ATOM    297  N   MET A   7     -10.807  18.829  33.159  0.00  0.00    -0.196 NA
BRANCH 295 303
ATOM    298  C   GLU A   5     -10.816  22.712  33.095  0.00  0.00    +0.246 C 
ATOM    299  N   PRO A   6     -11.293  22.195  34.254  0.00  0.00    -0.272 N 
ATOM    300  CD  PRO A   6     -12.114  22.856  35.296  0.00  0.00    +0.094 C 
ATOM    301  CG  PRO A   6     -12.644  21.703  36.106  0.00  0.00    +0.024 C 
ATOM    302  CB  PRO A   6     -11.612  20.629  36.008  0.00  0.00    +0.031 C 
ATOM    303  CA  PRO A   6     -11.006  20.788  34.604  0.00  0.00    +0.154 C 
ATOM    304  O   GLU A   5     -10.123  22.053  32.305  0.00  0.00    -0.273 OA
BRANCH 298 305
ATOM    305  CA  GLU A   5     -11.162  24.179  32.773  0.00  0.00    +0.172 C 
BRANCH 305 308
ATOM    306  C   GLY A   4      -9.001  25.060  33.795  0.00  0.00    +0.264 C 
ATOM    307  O   GLY A   4      -8.415  23.980  33.932  0.00  0.00    -0.271 OA
ATOM    308  N   GLU A   5     -10.252  25.180  33.323  0.00  0.00    -0.196 NA
BRANCH 306 309
ATOM    309  CA  GLY A   4      -8.346  26.364  34.223  0.00  0.00    +0.201 C 
BRANCH 309 312
ATOM    310  C   THR A   3      -7.236  25.594  36.276  0.00  0.00    +0.264 C 
ATOM    311  O   THR A   3      -8.267  25.131  36.775  0.00  0.00    -0.271 OA
ATOM    312  N   GLY A   4      -7.188  26.196  35.089  0.00  0.00    -0.194 NA
BRANCH 310 313
ATOM    313  CA  THR A   3      -5.917  25.489  37.033  0.00  0.00    +0.203 C 
BRANCH 313 316
ATOM    314  C   ASP A   2      -4.573  23.792  35.775  0.00  0.00    +0.262 C 
ATOM    315  O   ASP A   2      -5.236  22.818  36.150  0.00  0.00    -0.271 OA
ATOM    316  N   THR A   3      -4.824  25.059  36.150  0.00  0.00    -0.194 NA
BRANCH 314 317
ATOM    317  CA  ASP A   2      -3.346  23.572  34.888  0.00  0.00    +0.184 C 
BRANCH 317 320
ATOM    318  C   THR A   1      -1.235  23.442  36.117  0.00  0.00    +0.264 C 
ATOM    319  O   THR A   1      -0.928  24.598  35.799  0.00  0.00    -0.271 OA
ATOM    320  N   ASP A   2      -2.358  22.860  35.686  0.00  0.00    -0.196 NA
BRANCH 318 321
ATOM    321  CA  THR A   1      -0.288  22.605  36.959  0.00  0.00    +0.203 C 
BRANCH 321 323
ATOM    322  C   UNK A   0       1.587  22.759  35.423  0.00  0.00    +0.242 C 
ATOM    323  N   THR A   1       1.040  23.087  36.599  0.00  0.00    -0.195 NA
ATOM    324  O   UNK A   0       1.039  22.006  34.611  0.00  0.00    -0.273 OA
BRANCH 322 325
ATOM    325  C   UNK A   0       2.893  23.426  35.038  0.00  0.00    +0.087 C 
BRANCH 325 326
ATOM    326  C   UNK A   0       2.902  24.861  34.909  0.00  0.00    +0.010 C 
BRANCH 326 327
ATOM    327  C   UNK A   0       2.595  24.870  34.562  0.00  0.00    +0.004 C 
BRANCH 327 328
ATOM    328  C   UNK A   0       1.849  25.368  33.934  0.00  0.00    +0.047 C 
BRANCH 328 329
ATOM    329  C   UNK A   0       1.650  25.026  33.364  0.00  0.00    +0.051 C 
BRANCH 329 330
ATOM    330  C   UNK A   0       2.474  25.842  32.646  0.00  0.00    +0.221 C 
BRANCH 330 331
ATOM    331  N   UNK A   0       2.617  27.295  32.562  0.00  0.00    -0.087 NA
ATOM    332  C   UNK A   0       3.396  27.920  31.682  0.00  0.00    +0.535 C 
ATOM    333  N   UNK A   0       3.464  29.243  31.672  0.00  0.00    +0.135 NA
ATOM    334  N   UNK A   0       4.138  27.224  30.829  0.00  0.00    +0.135 NA
ENDBRANCH 330 331
ENDBRANCH 329 330
ENDBRANCH 328 329
BRANCH 328 335
ATOM    335  C   UNK A   0       1.149  26.461  33.141  0.00  0.00    +0.220 C 
BRANCH 335 336
ATOM    336  N   UNK A   0       0.522  26.609  31.823  0.00  0.00    -0.087 NA
ATOM    337  C   UNK A   0      -0.755  26.347  31.544  0.00  0.00    +0.535 C 
ATOM    338  N   UNK A   0      -1.587  25.954  32.504  0.00  0.00    +0.135 NA
ATOM    339  N   UNK A   0      -1.209  26.475  30.304  0.00  0.00    +0.135 NA
ENDBRANCH 335 336
ENDBRANCH 328 335
ENDBRANCH 327 328
ENDBRANCH 326 327
ENDBRANCH 325 326
ENDBRANCH 322 325
ENDBRANCH 321 323
BRANCH 321 340
ATOM    340  CB  THR A   1      -0.577  22.778  38.454  0.00  0.00    +0.181 C 
ATOM    341  CG2 THR A   1       0.348  21.955  39.313  0.00  0.00    +0.038 C 
ATOM    342  OG1 THR A   1      -0.487  24.167  38.784  0.00  0.00    -0.221 OA
ENDBRANCH 321 340
ENDBRANCH 318 321
ENDBRANCH 317 320
BRANCH 317 343
ATOM    343  CB  ASP A   2      -3.708  22.763  33.614  0.00  0.00    +0.145 C 
BRANCH 343 344
ATOM    344  CG  ASP A   2      -4.555  23.510  32.611  0.00  0.00    +0.367 C 
ATOM    345  OD2 ASP A   2      -5.666  23.039  32.311  0.00  0.00    -0.246 OA
ATOM    346  OD1 ASP A   2      -4.100  24.576  32.109  0.00  0.00    -0.246 OA
ENDBRANCH 343 344
ENDBRANCH 317 343
ENDBRANCH 314 317
ENDBRANCH 313 316
BRANCH 313 347
ATOM    347  CB  THR A   3      -5.504  26.778  37.772  0.00  0.00    +0.181 C 
ATOM    348  OG1 THR A   3      -4.593  26.413  38.808  0.00  0.00    -0.221 OA
ATOM    349  CG2 THR A   3      -6.685  27.542  38.378  0.00  0.00    +0.038 C 
ENDBRANCH 313 347
ENDBRANCH 310 313
ENDBRANCH 309 312
ENDBRANCH 306 309
ENDBRANCH 305 308
BRANCH 305 350
ATOM    350  CB  GLU A   5     -11.304  24.392  31.258  0.00  0.00    +0.043 C 
BRANCH 350 351
ATOM    351  CG  GLU A   5     -12.743  24.382  30.779  0.00  0.00    +0.116 C 
BRANCH 351 352
ATOM    352  CD  GLU A   5     -13.750  25.068  31.685  0.00  0.00    +0.365 C 
ATOM    353  OE2 GLU A   5     -14.739  24.403  32.064  0.00  0.00    -0.246 OA
ATOM    354  OE1 GLU A   5     -13.522  26.241  32.064  0.00  0.00    -0.246 OA
ENDBRANCH 351 352
ENDBRANCH 350 351
ENDBRANCH 305 350
ENDBRANCH 298 305
ENDBRANCH 295 303
ENDBRANCH 294 297
BRANCH 294 355
ATOM    355  CB  MET A   7      -9.892  17.452  31.364  0.00  0.00    +0.043 C 
BRANCH 355 356
ATOM    356  CG  MET A   7      -9.201  18.568  30.620  0.00  0.00    +0.060 C 
BRANCH 356 357
ATOM    357  SD  MET A   7      -7.585  17.959  30.094  0.00  0.00    -0.139 S 
ATOM    358  CE  MET A   7      -7.991  16.341  29.795  0.00  0.00    +0.069 C 
ENDBRANCH 356 357
ENDBRANCH 355 356
ENDBRANCH 294 355
ENDBRANCH 291 294
ENDBRANCH 290 292
ENDBRANCH 287 290
ENDBRANCH 286 289
BRANCH 286 359
ATOM    359  CB  ARG A   9     -10.268  11.094  32.822  0.00  0.00    +0.035 C 
BRANCH 359 360
ATOM    360  CG  ARG A   9      -9.149  10.058  32.759  0.00  0.00    +0.049 C 
BRANCH 360 361
ATOM    361  CD  ARG A   9      -9.720   8.631  32.626  0.00  0.00    +0.220 C 
BRANCH 361 362
ATOM    362  NE  ARG A   9     -10.610   8.512  31.472  0.00  0.00    -0.087 NA
ATOM    363  CZ  ARG A   9     -11.935   8.351  31.544  0.00  0.00    +0.535 C 
ATOM    364  NH2 ARG A   9     -12.546   8.294  32.731  0.00  0.00    +0.135 NA
ATOM    365  NH1 ARG A   9     -12.661   8.299  30.442  0.00  0.00    +0.135 NA
ENDBRANCH 361 362
ENDBRANCH 360 361
ENDBRANCH 359 360
ENDBRANCH 286 359
ENDBRANCH 283 286
ENDBRANCH 282 284
ENDBRANCH 279 282
ENDBRANCH 278 281
BRANCH 278 366
ATOM    366  CB  THR A  11      -4.509  13.660  26.482  0.00  0.00    +0.181 C 
ATOM    367  OG1 THR A  11      -4.025  12.844  27.541  0.00  0.00    -0.221 OA
ATOM    368  CG2 THR A  11      -3.342  14.434  25.818  0.00  0.00    +0.038 C 
ENDBRANCH 278 366
ENDBRANCH 275 278
ENDBRANCH 274 276
BRANCH 274 369
ATOM    369  CB  LYS A  12      -6.756  18.937  25.392  0.00  0.00    +0.031 C 
BRANCH 369 370
ATOM    370  CG  LYS A  12      -8.077  18.665  26.072  0.00  0.00    +0.004 C 
BRANCH 370 371
ATOM    371  CD  LYS A  12      -8.789  19.944  26.552  0.00  0.00    +0.021 C 
BRANCH 371 372
ATOM    372  CE  LYS A  12     -10.137  19.528  27.117  0.00  0.00    +0.109 C 
ATOM    373  NZ  LYS A  12     -10.833  20.646  27.831  0.00  0.00    -0.131 NA
ENDBRANCH 371 372
ENDBRANCH 370 371
ENDBRANCH 369 370
ENDBRANCH 274 369
ENDBRANCH 271 274
ENDBRANCH 267 273
ENDBRANCH 264 267
ENDBRANCH 263 265
BRANCH 263 374
ATOM    374  CB  ILE A  14      -3.562  23.138  22.258  0.00  0.00    +0.029 C 
ATOM    375  CG2 ILE A  14      -3.993  24.449  21.531  0.00  0.00    +0.002 C 
BRANCH 374 376
ATOM    376  CG1 ILE A  14      -4.556  22.696  23.349  0.00  0.00    +0.002 C 
ATOM    377  CD1 ILE A  14      -4.722  23.741  24.467  0.00  0.00    +0.000 C 
ENDBRANCH 374 376
ENDBRANCH 263 374
ENDBRANCH 260 263
ENDBRANCH 259 262
BRANCH 259 378
ATOM    378  CB  LEU A  15      -1.779  21.757  16.709  0.00  0.00    +0.031 C 
BRANCH 378 379
ATOM    379  CG  LEU A  15      -1.801  20.267  16.954  0.00  0.00    +0.002 C 
ATOM    380  CD2 LEU A  15      -0.488  19.789  17.508  0.00  0.00    +0.000 C 
ATOM    381  CD1 LEU A  15      -2.114  19.562  15.668  0.00  0.00    +0.000 C 
ENDBRANCH 378 379
ENDBRANCH 259 378
ENDBRANCH 256 259
ENDBRANCH 255 257
BRANCH 255 382
ATOM    382  CB  HIS A  16       0.242  27.082  18.563  0.00  0.00    +0.079 C 
BRANCH 382 383
ATOM    383  CG  HIS A  16      -0.342  27.021  19.948  0.00  0.00    +0.082 A 
ATOM    384  ND1 HIS A  16      -0.040  25.992  20.840  0.00  0.00    -0.227 NA
ATOM    385  CE1 HIS A  16      -0.708  26.283  21.954  0.00  0.00    +0.199 A 
ATOM    386  NE2 HIS A  16      -1.421  27.421  21.809  0.00  0.00    -0.221 NA
ATOM    387  CD2 HIS A  16      -1.181  27.897  20.552  0.00  0.00    +0.115 A 
ENDBRANCH 382 383
ENDBRANCH 255 382
ENDBRANCH 252 255
ENDBRANCH 251 254
BRANCH 251 388
ATOM    388  CB  LEU A  17      -1.413  25.935  12.763  0.00  0.00    +0.031 C 
BRANCH 388 389
ATOM    389  CG  LEU A  17      -2.372  24.767  13.068  0.00  0.00    +0.002 C 
ATOM    390  CD2 LEU A  17      -1.655  23.440  13.054  0.00  0.00    +0.000 C 
ATOM    391  CD1 LEU A  17      -3.527  24.724  12.063  0.00  0.00    +0.000 C 
ENDBRANCH 388 389
ENDBRANCH 251 388
ENDBRANCH 248 251
ENDBRANCH 247 250
BRANCH 247 392
ATOM    392  CB  LYS A  18       3.526  26.792  10.854  0.00  0.00    +0.031 C 
BRANCH 392 393
ATOM    393  CG  LYS A  18       4.538  26.055  11.758  0.00  0.00    +0.004 C 
BRANCH 393 394
ATOM    394  CD  LYS A  18       5.646  25.363  11.002  0.00  0.00    +0.021 C 
BRANCH 394 395
ATOM    395  CE  LYS A  18       5.154  24.274  10.095  0.00  0.00    +0.109 C 
ATOM    396  NZ  LYS A  18       6.005  24.164   8.882  0.00  0.00    -0.131 NA
ENDBRANCH 394 395
ENDBRANCH 393 394
ENDBRANCH 392 393
ENDBRANCH 247 392
ENDBRANCH 244 247
ENDBRANCH 243 245
BRANCH 243 397
ATOM    397  CB  GLU A  19       2.084  31.840   9.308  0.00  0.00    +0.043 C 
BRANCH 397 398
ATOM    398  CG  GLU A  19       1.178  33.052   9.204  0.00  0.00    +0.116 C 
BRANCH 398 399
ATOM    399  CD  GLU A  19       1.912  34.375   9.112  0.00  0.00    +0.365 C 
ATOM    400  OE2 GLU A  19       2.128  35.007  10.171  0.00  0.00    -0.246 OA
ATOM    401  OE1 GLU A  19       2.258  34.787   7.980  0.00  0.00    -0.246 OA
ENDBRANCH 398 399
ENDBRANCH 397 398
ENDBRANCH 243 397
ENDBRANCH 240 243
ENDBRANCH 239 242
BRANCH 239 402
ATOM    402  CB  ASP A  20       2.839  28.405   5.482  0.00  0.00    +0.145 C 
BRANCH 402 403
ATOM    403  CG  ASP A  20       3.898  27.450   6.022  0.00  0.00    +0.367 C 
ATOM    404  OD2 ASP A  20       3.830  27.090   7.215  0.00  0.00    -0.246 OA
ATOM    405  OD1 ASP A  20       4.826  27.106   5.261  0.00  0.00    -0.246 OA
ENDBRANCH 402 403
ENDBRANCH 239 402
ENDBRANCH 236 239
ENDBRANCH 235 237
BRANCH 235 406
ATOM    406  CB  GLN A  21       0.480  24.591   8.699  0.00  0.00    +0.041 C 
BRANCH 406 407
ATOM    407  CG  GLN A  21       1.939  24.383   8.275  0.00  0.00    +0.091 C 
BRANCH 407 408
ATOM    408  CD  GLN A  21       2.116  23.665   6.950  0.00  0.00    +0.261 C 
ATOM    409  NE2 GLN A  21       1.273  22.695   6.672  0.00  0.00    -0.088 NA
ATOM    410  OE1 GLN A  21       3.051  23.943   6.162  0.00  0.00    -0.272 OA
ENDBRANCH 407 408
ENDBRANCH 406 407
ENDBRANCH 235 406
ENDBRANCH 232 235
ENDBRANCH 231 234
BRANCH 231 411
ATOM    411  CB  THR A  22      -4.211  28.421   8.146  0.00  0.00    +0.181 C 
ATOM    412  CG2 THR A  22      -3.364  29.272   9.080  0.00  0.00    +0.038 C 
ATOM    413  OG1 THR A  22      -4.166  28.897   6.796  0.00  0.00    -0.221 OA
ENDBRANCH 231 411
ENDBRANCH 228 231
ENDBRANCH 227 230
BRANCH 227 414
ATOM    414  CB  GLU A  23      -4.701  23.690   4.513  0.00  0.00    +0.043 C 
BRANCH 414 415
ATOM    415  CG  GLU A  23      -3.659  22.675   4.937  0.00  0.00    +0.116 C 
BRANCH 415 416
ATOM    416  CD  GLU A  23      -2.811  22.205   3.783  0.00  0.00    +0.365 C 
ATOM    417  OE2 GLU A  23      -1.883  22.952   3.395  0.00  0.00    -0.246 OA
ATOM    418  OE1 GLU A  23      -3.123  21.132   3.219  0.00  0.00    -0.246 OA
ENDBRANCH 415 416
ENDBRANCH 414 415
ENDBRANCH 227 414
ENDBRANCH 224 227
ENDBRANCH 223 225
BRANCH 223 419
ATOM    419  CB  TYR A  24      -4.413  21.492   9.481  0.00  0.00    +0.057 C 
BRANCH 419 420
ATOM    420  CG  TYR A  24      -3.492  20.826   8.487  0.00  0.00    -0.020 A 
ATOM    421  CD2 TYR A  24      -2.249  21.375   8.181  0.00  0.00    -0.001 A 
ATOM    422  CE2 TYR A  24      -1.433  20.810   7.202  0.00  0.00    +0.042 A 
ATOM    423  CZ  TYR A  24      -1.872  19.701   6.497  0.00  0.00    +0.196 A 
ATOM    424  CE1 TYR A  24      -3.105  19.148   6.779  0.00  0.00    +0.042 A 
ATOM    425  OH  TYR A  24      -1.094  19.148   5.487  0.00  0.00    -0.287 OA
ATOM    426  CD1 TYR A  24      -3.912  19.719   7.757  0.00  0.00    -0.001 A 
ENDBRANCH 419 420
ENDBRANCH 223 419
ENDBRANCH 220 223
ENDBRANCH 219 222
BRANCH 219 427
ATOM    427  CB  LEU A  25      -8.039  25.851  10.602  0.00  0.00    +0.031 C 
BRANCH 427 428
ATOM    428  CG  LEU A  25      -6.810  26.019  11.489  0.00  0.00    +0.002 C 
ATOM    429  CD2 LEU A  25      -6.961  25.247  12.820  0.00  0.00    +0.000 C 
ATOM    430  CD1 LEU A  25      -6.505  27.482  11.736  0.00  0.00    +0.000 C 
ENDBRANCH 427 428
ENDBRANCH 219 427
ENDBRANCH   1 219
TORSDOF 212
