REMARK  Name = /Users/mlugowska/PhD/ML_residence_time_prediction/protein_files/5NYH_protein.pdb
REMARK  779 active torsions:
REMARK  status: ('A' for Active; 'I' for Inactive)
REMARK    1  A    between atoms: _2  and  _3
REMARK    2  A    between atoms: _2  and  _5
REMARK    3  A    between atoms: _5  and  _6
REMARK    4  A    between atoms: _6  and  _7
REMARK    5  A    between atoms: _10  and  _11
REMARK    6  A    between atoms: _11  and  _12
REMARK    7  A    between atoms: _11  and  _14
REMARK    8  A    between atoms: _17  and  _18
REMARK    9  A    between atoms: _18  and  _19
REMARK   10  A    between atoms: _18  and  _21
REMARK   11  A    between atoms: _21  and  _22
REMARK   12  A    between atoms: _22  and  _23
REMARK   13  A    between atoms: _26  and  _27
REMARK   14  A    between atoms: _27  and  _28
REMARK   15  A    between atoms: _27  and  _30
REMARK   16  A    between atoms: _33  and  _34
REMARK   17  A    between atoms: _34  and  _35
REMARK   18  A    between atoms: _34  and  _37
REMARK   19  A    between atoms: _37  and  _38
REMARK   20  A    between atoms: _44  and  _45
REMARK   21  A    between atoms: _45  and  _46
REMARK   22  A    between atoms: _49  and  _50
REMARK   23  A    between atoms: _50  and  _51
REMARK   24  A    between atoms: _50  and  _53
REMARK   25  A    between atoms: _53  and  _54
REMARK   26  A    between atoms: _60  and  _61
REMARK   27  A    between atoms: _61  and  _62
REMARK   28  A    between atoms: _61  and  _64
REMARK   29  A    between atoms: _64  and  _65
REMARK   30  A    between atoms: _65  and  _66
REMARK   31  A    between atoms: _69  and  _70
REMARK   32  A    between atoms: _70  and  _71
REMARK   33  A    between atoms: _74  and  _75
REMARK   34  A    between atoms: _75  and  _76
REMARK   35  A    between atoms: _75  and  _78
REMARK   36  A    between atoms: _78  and  _79
REMARK   37  A    between atoms: _79  and  _80
REMARK   38  A    between atoms: _83  and  _84
REMARK   39  A    between atoms: _84  and  _85
REMARK   40  A    between atoms: _84  and  _87
REMARK   41  A    between atoms: _87  and  _88
REMARK   42  A    between atoms: _91  and  _92
REMARK   43  A    between atoms: _92  and  _93
REMARK   44  A    between atoms: _96  and  _97
REMARK   45  A    between atoms: _97  and  _98
REMARK   46  A    between atoms: _97  and  _100
REMARK   47  A    between atoms: _100  and  _101
REMARK   48  A    between atoms: _101  and  _102
REMARK   49  A    between atoms: _105  and  _106
REMARK   50  A    between atoms: _106  and  _107
REMARK   51  A    between atoms: _106  and  _109
REMARK   52  A    between atoms: _109  and  _110
REMARK   53  A    between atoms: _113  and  _114
REMARK   54  A    between atoms: _114  and  _115
REMARK   55  A    between atoms: _114  and  _117
REMARK   56  A    between atoms: _117  and  _118
REMARK   57  A    between atoms: _118  and  _119
REMARK   58  A    between atoms: _121  and  _122
REMARK   59  A    between atoms: _122  and  _123
REMARK   60  A    between atoms: _122  and  _125
REMARK   61  A    between atoms: _127  and  _128
REMARK   62  A    between atoms: _128  and  _129
REMARK   63  A    between atoms: _128  and  _131
REMARK   64  A    between atoms: _131  and  _132
REMARK   65  A    between atoms: _135  and  _136
REMARK   66  A    between atoms: _136  and  _137
REMARK   67  A    between atoms: _136  and  _139
REMARK   68  A    between atoms: _139  and  _140
REMARK   69  A    between atoms: _143  and  _144
REMARK   70  A    between atoms: _144  and  _145
REMARK   71  A    between atoms: _144  and  _147
REMARK   72  A    between atoms: _147  and  _148
REMARK   73  A    between atoms: _151  and  _152
REMARK   74  A    between atoms: _152  and  _153
REMARK   75  A    between atoms: _152  and  _155
REMARK   76  A    between atoms: _155  and  _156
REMARK   77  A    between atoms: _159  and  _160
REMARK   78  A    between atoms: _160  and  _161
REMARK   79  A    between atoms: _160  and  _163
REMARK   80  A    between atoms: _166  and  _167
REMARK   81  A    between atoms: _167  and  _168
REMARK   82  A    between atoms: _167  and  _170
REMARK   83  A    between atoms: _170  and  _171
REMARK   84  A    between atoms: _177  and  _178
REMARK   85  A    between atoms: _178  and  _179
REMARK   86  A    between atoms: _178  and  _181
REMARK   87  A    between atoms: _181  and  _182
REMARK   88  A    between atoms: _189  and  _190
REMARK   89  A    between atoms: _190  and  _191
REMARK   90  A    between atoms: _190  and  _193
REMARK   91  A    between atoms: _195  and  _196
REMARK   92  A    between atoms: _196  and  _197
REMARK   93  A    between atoms: _196  and  _199
REMARK   94  A    between atoms: _199  and  _200
REMARK   95  A    between atoms: _203  and  _204
REMARK   96  A    between atoms: _204  and  _205
REMARK   97  A    between atoms: _204  and  _207
REMARK   98  A    between atoms: _207  and  _208
REMARK   99  A    between atoms: _208  and  _209
REMARK  100  A    between atoms: _209  and  _210
REMARK  101  A    between atoms: _212  and  _213
REMARK  102  A    between atoms: _213  and  _214
REMARK  103  A    between atoms: _213  and  _216
REMARK  104  A    between atoms: _216  and  _217
REMARK  105  A    between atoms: _217  and  _218
REMARK  106  A    between atoms: _221  and  _222
REMARK  107  A    between atoms: _222  and  _223
REMARK  108  A    between atoms: _222  and  _225
REMARK  109  A    between atoms: _225  and  _226
REMARK  110  A    between atoms: _229  and  _230
REMARK  111  A    between atoms: _230  and  _231
REMARK  112  A    between atoms: _230  and  _233
REMARK  113  A    between atoms: _233  and  _234
REMARK  114  A    between atoms: _240  and  _241
REMARK  115  A    between atoms: _241  and  _242
REMARK  116  A    between atoms: _241  and  _244
REMARK  117  A    between atoms: _244  and  _245
REMARK  118  A    between atoms: _248  and  _249
REMARK  119  A    between atoms: _249  and  _250
REMARK  120  A    between atoms: _249  and  _252
REMARK  121  A    between atoms: _252  and  _253
REMARK  122  A    between atoms: _253  and  _254
REMARK  123  A    between atoms: _254  and  _255
REMARK  124  A    between atoms: _259  and  _260
REMARK  125  A    between atoms: _260  and  _261
REMARK  126  A    between atoms: _260  and  _263
REMARK  127  A    between atoms: _263  and  _264
REMARK  128  A    between atoms: _264  and  _265
REMARK  129  A    between atoms: _268  and  _269
REMARK  130  A    between atoms: _269  and  _270
REMARK  131  A    between atoms: _269  and  _272
REMARK  132  A    between atoms: _272  and  _273
REMARK  133  A    between atoms: _276  and  _277
REMARK  134  A    between atoms: _277  and  _278
REMARK  135  A    between atoms: _277  and  _280
REMARK  136  A    between atoms: _280  and  _281
REMARK  137  A    between atoms: _284  and  _285
REMARK  138  A    between atoms: _285  and  _286
REMARK  139  A    between atoms: _285  and  _288
REMARK  140  A    between atoms: _290  and  _291
REMARK  141  A    between atoms: _291  and  _292
REMARK  142  A    between atoms: _291  and  _294
REMARK  143  A    between atoms: _294  and  _295
REMARK  144  A    between atoms: _298  and  _299
REMARK  145  A    between atoms: _299  and  _300
REMARK  146  A    between atoms: _299  and  _302
REMARK  147  A    between atoms: _304  and  _305
REMARK  148  A    between atoms: _305  and  _306
REMARK  149  A    between atoms: _305  and  _308
REMARK  150  A    between atoms: _310  and  _311
REMARK  151  A    between atoms: _311  and  _312
REMARK  152  A    between atoms: _311  and  _314
REMARK  153  A    between atoms: _314  and  _315
REMARK  154  A    between atoms: _318  and  _319
REMARK  155  A    between atoms: _319  and  _320
REMARK  156  A    between atoms: _323  and  _324
REMARK  157  A    between atoms: _324  and  _325
REMARK  158  A    between atoms: _324  and  _327
REMARK  159  A    between atoms: _327  and  _328
REMARK  160  A    between atoms: _331  and  _332
REMARK  161  A    between atoms: _332  and  _333
REMARK  162  A    between atoms: _332  and  _335
REMARK  163  A    between atoms: _335  and  _336
REMARK  164  A    between atoms: _339  and  _340
REMARK  165  A    between atoms: _340  and  _341
REMARK  166  A    between atoms: _340  and  _343
REMARK  167  A    between atoms: _343  and  _344
REMARK  168  A    between atoms: _344  and  _345
REMARK  169  A    between atoms: _345  and  _346
REMARK  170  A    between atoms: _348  and  _349
REMARK  171  A    between atoms: _349  and  _350
REMARK  172  A    between atoms: _349  and  _352
REMARK  173  A    between atoms: _352  and  _353
REMARK  174  A    between atoms: _356  and  _357
REMARK  175  A    between atoms: _357  and  _358
REMARK  176  A    between atoms: _357  and  _360
REMARK  177  A    between atoms: _360  and  _361
REMARK  178  A    between atoms: _361  and  _362
REMARK  179  A    between atoms: _362  and  _363
REMARK  180  A    between atoms: _367  and  _368
REMARK  181  A    between atoms: _368  and  _369
REMARK  182  A    between atoms: _368  and  _371
REMARK  183  A    between atoms: _371  and  _372
REMARK  184  A    between atoms: _379  and  _380
REMARK  185  A    between atoms: _380  and  _381
REMARK  186  A    between atoms: _380  and  _383
REMARK  187  A    between atoms: _383  and  _384
REMARK  188  A    between atoms: _384  and  _385
REMARK  189  A    between atoms: _388  and  _389
REMARK  190  A    between atoms: _389  and  _390
REMARK  191  A    between atoms: _389  and  _392
REMARK  192  A    between atoms: _394  and  _395
REMARK  193  A    between atoms: _395  and  _396
REMARK  194  A    between atoms: _395  and  _398
REMARK  195  A    between atoms: _398  and  _399
REMARK  196  A    between atoms: _402  and  _403
REMARK  197  A    between atoms: _403  and  _404
REMARK  198  A    between atoms: _403  and  _406
REMARK  199  A    between atoms: _409  and  _410
REMARK  200  A    between atoms: _410  and  _411
REMARK  201  A    between atoms: _410  and  _413
REMARK  202  A    between atoms: _413  and  _414
REMARK  203  A    between atoms: _418  and  _419
REMARK  204  A    between atoms: _424  and  _425
REMARK  205  A    between atoms: _425  and  _426
REMARK  206  A    between atoms: _425  and  _428
REMARK  207  A    between atoms: _430  and  _431
REMARK  208  A    between atoms: _431  and  _432
REMARK  209  A    between atoms: _431  and  _434
REMARK  210  A    between atoms: _434  and  _435
REMARK  211  A    between atoms: _435  and  _436
REMARK  212  A    between atoms: _436  and  _437
REMARK  213  A    between atoms: _439  and  _440
REMARK  214  A    between atoms: _440  and  _441
REMARK  215  A    between atoms: _440  and  _443
REMARK  216  A    between atoms: _443  and  _444
REMARK  217  A    between atoms: _447  and  _448
REMARK  218  A    between atoms: _448  and  _449
REMARK  219  A    between atoms: _448  and  _451
REMARK  220  A    between atoms: _451  and  _452
REMARK  221  A    between atoms: _455  and  _456
REMARK  222  A    between atoms: _456  and  _457
REMARK  223  A    between atoms: _456  and  _459
REMARK  224  A    between atoms: _461  and  _462
REMARK  225  A    between atoms: _462  and  _463
REMARK  226  A    between atoms: _465  and  _466
REMARK  227  A    between atoms: _466  and  _467
REMARK  228  A    between atoms: _466  and  _469
REMARK  229  A    between atoms: _469  and  _470
REMARK  230  A    between atoms: _470  and  _471
REMARK  231  A    between atoms: _471  and  _472
REMARK  232  A    between atoms: _474  and  _475
REMARK  233  A    between atoms: _475  and  _476
REMARK  234  A    between atoms: _475  and  _478
REMARK  235  A    between atoms: _478  and  _479
REMARK  236  A    between atoms: _479  and  _480
REMARK  237  A    between atoms: _483  and  _484
REMARK  238  A    between atoms: _484  and  _485
REMARK  239  A    between atoms: _484  and  _487
REMARK  240  A    between atoms: _487  and  _488
REMARK  241  A    between atoms: _491  and  _492
REMARK  242  A    between atoms: _492  and  _493
REMARK  243  A    between atoms: _492  and  _495
REMARK  244  A    between atoms: _495  and  _496
REMARK  245  A    between atoms: _501  and  _502
REMARK  246  A    between atoms: _502  and  _503
REMARK  247  A    between atoms: _502  and  _505
REMARK  248  A    between atoms: _505  and  _506
REMARK  249  A    between atoms: _509  and  _510
REMARK  250  A    between atoms: _510  and  _511
REMARK  251  A    between atoms: _510  and  _513
REMARK  252  A    between atoms: _513  and  _514
REMARK  253  A    between atoms: _517  and  _518
REMARK  254  A    between atoms: _518  and  _519
REMARK  255  A    between atoms: _518  and  _521
REMARK  256  A    between atoms: _521  and  _522
REMARK  257  A    between atoms: _525  and  _526
REMARK  258  A    between atoms: _526  and  _527
REMARK  259  A    between atoms: _526  and  _529
REMARK  260  A    between atoms: _529  and  _530
REMARK  261  A    between atoms: _534  and  _535
REMARK  262  A    between atoms: _540  and  _541
REMARK  263  A    between atoms: _541  and  _542
REMARK  264  A    between atoms: _541  and  _544
REMARK  265  A    between atoms: _544  and  _545
REMARK  266  A    between atoms: _548  and  _549
REMARK  267  A    between atoms: _549  and  _552
REMARK  268  A    between atoms: _552  and  _553
REMARK  269  A    between atoms: _553  and  _554
REMARK  270  A    between atoms: _554  and  _555
REMARK  271  A    between atoms: _568  and  _569
REMARK  272  A    between atoms: _576  and  _577
REMARK  273  A    between atoms: _576  and  _579
REMARK  274  A    between atoms: _579  and  _580
REMARK  275  A    between atoms: _583  and  _584
REMARK  276  A    between atoms: _584  and  _585
REMARK  277  A    between atoms: _584  and  _587
REMARK  278  A    between atoms: _587  and  _588
REMARK  279  A    between atoms: _588  and  _589
REMARK  280  A    between atoms: _589  and  _590
REMARK  281  A    between atoms: _594  and  _595
REMARK  282  A    between atoms: _595  and  _596
REMARK  283  A    between atoms: _595  and  _598
REMARK  284  A    between atoms: _601  and  _602
REMARK  285  A    between atoms: _602  and  _603
REMARK  286  A    between atoms: _602  and  _605
REMARK  287  A    between atoms: _605  and  _606
REMARK  288  A    between atoms: _609  and  _610
REMARK  289  A    between atoms: _610  and  _611
REMARK  290  A    between atoms: _610  and  _613
REMARK  291  A    between atoms: _616  and  _617
REMARK  292  A    between atoms: _617  and  _618
REMARK  293  A    between atoms: _617  and  _620
REMARK  294  A    between atoms: _620  and  _621
REMARK  295  A    between atoms: _624  and  _625
REMARK  296  A    between atoms: _625  and  _626
REMARK  297  A    between atoms: _625  and  _628
REMARK  298  A    between atoms: _631  and  _632
REMARK  299  A    between atoms: _632  and  _633
REMARK  300  A    between atoms: _632  and  _635
REMARK  301  A    between atoms: _635  and  _636
REMARK  302  A    between atoms: _639  and  _640
REMARK  303  A    between atoms: _640  and  _641
REMARK  304  A    between atoms: _640  and  _643
REMARK  305  A    between atoms: _646  and  _647
REMARK  306  A    between atoms: _647  and  _648
REMARK  307  A    between atoms: _650  and  _651
REMARK  308  A    between atoms: _651  and  _652
REMARK  309  A    between atoms: _651  and  _654
REMARK  310  A    between atoms: _654  and  _655
REMARK  311  A    between atoms: _658  and  _659
REMARK  312  A    between atoms: _659  and  _660
REMARK  313  A    between atoms: _662  and  _663
REMARK  314  A    between atoms: _663  and  _664
REMARK  315  A    between atoms: _663  and  _666
REMARK  316  A    between atoms: _666  and  _667
REMARK  317  A    between atoms: _667  and  _668
REMARK  318  A    between atoms: _670  and  _671
REMARK  319  A    between atoms: _671  and  _672
REMARK  320  A    between atoms: _671  and  _674
REMARK  321  A    between atoms: _677  and  _678
REMARK  322  A    between atoms: _678  and  _679
REMARK  323  A    between atoms: _678  and  _681
REMARK  324  A    between atoms: _681  and  _682
REMARK  325  A    between atoms: _682  and  _683
REMARK  326  A    between atoms: _683  and  _684
REMARK  327  A    between atoms: _686  and  _687
REMARK  328  A    between atoms: _687  and  _688
REMARK  329  A    between atoms: _691  and  _692
REMARK  330  A    between atoms: _692  and  _693
REMARK  331  A    between atoms: _692  and  _695
REMARK  332  A    between atoms: _695  and  _696
REMARK  333  A    between atoms: _699  and  _700
REMARK  334  A    between atoms: _700  and  _701
REMARK  335  A    between atoms: _700  and  _703
REMARK  336  A    between atoms: _703  and  _704
REMARK  337  A    between atoms: _707  and  _708
REMARK  338  A    between atoms: _708  and  _709
REMARK  339  A    between atoms: _708  and  _711
REMARK  340  A    between atoms: _711  and  _712
REMARK  341  A    between atoms: _715  and  _716
REMARK  342  A    between atoms: _716  and  _717
REMARK  343  A    between atoms: _716  and  _719
REMARK  344  A    between atoms: _719  and  _720
REMARK  345  A    between atoms: _723  and  _724
REMARK  346  A    between atoms: _724  and  _725
REMARK  347  A    between atoms: _724  and  _727
REMARK  348  A    between atoms: _727  and  _728
REMARK  349  A    between atoms: _731  and  _732
REMARK  350  A    between atoms: _732  and  _733
REMARK  351  A    between atoms: _732  and  _735
REMARK  352  A    between atoms: _735  and  _736
REMARK  353  A    between atoms: _739  and  _740
REMARK  354  A    between atoms: _740  and  _741
REMARK  355  A    between atoms: _743  and  _744
REMARK  356  A    between atoms: _744  and  _745
REMARK  357  A    between atoms: _744  and  _747
REMARK  358  A    between atoms: _750  and  _751
REMARK  359  A    between atoms: _751  and  _752
REMARK  360  A    between atoms: _751  and  _754
REMARK  361  A    between atoms: _754  and  _755
REMARK  362  A    between atoms: _758  and  _759
REMARK  363  A    between atoms: _759  and  _760
REMARK  364  A    between atoms: _763  and  _764
REMARK  365  A    between atoms: _764  and  _765
REMARK  366  A    between atoms: _764  and  _767
REMARK  367  A    between atoms: _767  and  _768
REMARK  368  A    between atoms: _768  and  _769
REMARK  369  A    between atoms: _769  and  _770
REMARK  370  A    between atoms: _772  and  _773
REMARK  371  A    between atoms: _773  and  _774
REMARK  372  A    between atoms: _773  and  _776
REMARK  373  A    between atoms: _778  and  _779
REMARK  374  A    between atoms: _779  and  _780
REMARK  375  A    between atoms: _782  and  _783
REMARK  376  A    between atoms: _783  and  _784
REMARK  377  A    between atoms: _783  and  _786
REMARK  378  A    between atoms: _789  and  _790
REMARK  379  A    between atoms: _790  and  _791
REMARK  380  A    between atoms: _790  and  _793
REMARK  381  A    between atoms: _793  and  _794
REMARK  382  A    between atoms: _794  and  _795
REMARK  383  A    between atoms: _795  and  _796
REMARK  384  A    between atoms: _798  and  _799
REMARK  385  A    between atoms: _799  and  _800
REMARK  386  A    between atoms: _803  and  _804
REMARK  387  A    between atoms: _804  and  _805
REMARK  388  A    between atoms: _804  and  _807
REMARK  389  A    between atoms: _807  and  _808
REMARK  390  A    between atoms: _814  and  _815
REMARK  391  A    between atoms: _815  and  _816
REMARK  392  A    between atoms: _815  and  _818
REMARK  393  A    between atoms: _818  and  _819
REMARK  394  A    between atoms: _819  and  _820
REMARK  395  A    between atoms: _822  and  _823
REMARK  396  A    between atoms: _823  and  _824
REMARK  397  A    between atoms: _823  and  _826
REMARK  398  A    between atoms: _826  and  _827
REMARK  399  A    between atoms: _827  and  _828
REMARK  400  A    between atoms: _831  and  _832
REMARK  401  A    between atoms: _832  and  _833
REMARK  402  A    between atoms: _836  and  _837
REMARK  403  A    between atoms: _837  and  _838
REMARK  404  A    between atoms: _837  and  _840
REMARK  405  A    between atoms: _840  and  _841
REMARK  406  A    between atoms: _844  and  _845
REMARK  407  A    between atoms: _845  and  _846
REMARK  408  A    between atoms: _845  and  _848
REMARK  409  A    between atoms: _848  and  _849
REMARK  410  A    between atoms: _849  and  _850
REMARK  411  A    between atoms: _853  and  _854
REMARK  412  A    between atoms: _854  and  _855
REMARK  413  A    between atoms: _858  and  _859
REMARK  414  A    between atoms: _859  and  _860
REMARK  415  A    between atoms: _862  and  _863
REMARK  416  A    between atoms: _863  and  _864
REMARK  417  A    between atoms: _867  and  _868
REMARK  418  A    between atoms: _868  and  _869
REMARK  419  A    between atoms: _868  and  _871
REMARK  420  A    between atoms: _871  and  _872
REMARK  421  A    between atoms: _875  and  _876
REMARK  422  A    between atoms: _876  and  _877
REMARK  423  A    between atoms: _876  and  _879
REMARK  424  A    between atoms: _879  and  _880
REMARK  425  A    between atoms: _883  and  _884
REMARK  426  A    between atoms: _884  and  _887
REMARK  427  A    between atoms: _906  and  _907
REMARK  428  A    between atoms: _906  and  _909
REMARK  429  A    between atoms: _909  and  _910
REMARK  430  A    between atoms: _913  and  _914
REMARK  431  A    between atoms: _914  and  _915
REMARK  432  A    between atoms: _917  and  _918
REMARK  433  A    between atoms: _918  and  _919
REMARK  434  A    between atoms: _918  and  _921
REMARK  435  A    between atoms: _921  and  _922
REMARK  436  A    between atoms: _922  and  _923
REMARK  437  A    between atoms: _926  and  _927
REMARK  438  A    between atoms: _927  and  _928
REMARK  439  A    between atoms: _927  and  _930
REMARK  440  A    between atoms: _930  and  _931
REMARK  441  A    between atoms: _937  and  _938
REMARK  442  A    between atoms: _938  and  _939
REMARK  443  A    between atoms: _941  and  _942
REMARK  444  A    between atoms: _942  and  _943
REMARK  445  A    between atoms: _942  and  _945
REMARK  446  A    between atoms: _948  and  _949
REMARK  447  A    between atoms: _949  and  _950
REMARK  448  A    between atoms: _952  and  _953
REMARK  449  A    between atoms: _953  and  _954
REMARK  450  A    between atoms: _953  and  _956
REMARK  451  A    between atoms: _956  and  _957
REMARK  452  A    between atoms: _963  and  _964
REMARK  453  A    between atoms: _964  and  _965
REMARK  454  A    between atoms: _964  and  _967
REMARK  455  A    between atoms: _967  and  _968
REMARK  456  A    between atoms: _975  and  _976
REMARK  457  A    between atoms: _976  and  _977
REMARK  458  A    between atoms: _976  and  _979
REMARK  459  A    between atoms: _981  and  _982
REMARK  460  A    between atoms: _982  and  _983
REMARK  461  A    between atoms: _986  and  _987
REMARK  462  A    between atoms: _987  and  _988
REMARK  463  A    between atoms: _987  and  _990
REMARK  464  A    between atoms: _990  and  _991
REMARK  465  A    between atoms: _998  and  _999
REMARK  466  A    between atoms: _999  and  _1000
REMARK  467  A    between atoms: _999  and  _1002
REMARK  468  A    between atoms: _1002  and  _1003
REMARK  469  A    between atoms: _1006  and  _1007
REMARK  470  A    between atoms: _1007  and  _1008
REMARK  471  A    between atoms: _1007  and  _1010
REMARK  472  A    between atoms: _1013  and  _1014
REMARK  473  A    between atoms: _1014  and  _1015
REMARK  474  A    between atoms: _1018  and  _1019
REMARK  475  A    between atoms: _1019  and  _1020
REMARK  476  A    between atoms: _1019  and  _1022
REMARK  477  A    between atoms: _1023  and  _1024
REMARK  478  A    between atoms: _1027  and  _1028
REMARK  479  A    between atoms: _1028  and  _1029
REMARK  480  A    between atoms: _1028  and  _1031
REMARK  481  A    between atoms: _1031  and  _1032
REMARK  482  A    between atoms: _1032  and  _1033
REMARK  483  A    between atoms: _1033  and  _1034
REMARK  484  A    between atoms: _1036  and  _1037
REMARK  485  A    between atoms: _1037  and  _1038
REMARK  486  A    between atoms: _1037  and  _1040
REMARK  487  A    between atoms: _1043  and  _1044
REMARK  488  A    between atoms: _1044  and  _1045
REMARK  489  A    between atoms: _1044  and  _1047
REMARK  490  A    between atoms: _1050  and  _1051
REMARK  491  A    between atoms: _1051  and  _1052
REMARK  492  A    between atoms: _1051  and  _1054
REMARK  493  A    between atoms: _1057  and  _1058
REMARK  494  A    between atoms: _1058  and  _1059
REMARK  495  A    between atoms: _1058  and  _1061
REMARK  496  A    between atoms: _1061  and  _1062
REMARK  497  A    between atoms: _1065  and  _1066
REMARK  498  A    between atoms: _1066  and  _1067
REMARK  499  A    between atoms: _1066  and  _1069
REMARK  500  A    between atoms: _1072  and  _1073
REMARK  501  A    between atoms: _1073  and  _1074
REMARK  502  A    between atoms: _1073  and  _1076
REMARK  503  A    between atoms: _1076  and  _1077
REMARK  504  A    between atoms: _1077  and  _1078
REMARK  505  A    between atoms: _1078  and  _1079
REMARK  506  A    between atoms: _1081  and  _1082
REMARK  507  A    between atoms: _1082  and  _1083
REMARK  508  A    between atoms: _1082  and  _1085
REMARK  509  A    between atoms: _1085  and  _1086
REMARK  510  A    between atoms: _1091  and  _1092
REMARK  511  A    between atoms: _1092  and  _1093
REMARK  512  A    between atoms: _1092  and  _1095
REMARK  513  A    between atoms: _1095  and  _1096
REMARK  514  A    between atoms: _1099  and  _1100
REMARK  515  A    between atoms: _1100  and  _1101
REMARK  516  A    between atoms: _1100  and  _1103
REMARK  517  A    between atoms: _1103  and  _1104
REMARK  518  A    between atoms: _1107  and  _1108
REMARK  519  A    between atoms: _1108  and  _1111
REMARK  520  A    between atoms: _1111  and  _1112
REMARK  521  A    between atoms: _1125  and  _1127
REMARK  522  A    between atoms: _1134  and  _1135
REMARK  523  A    between atoms: _1134  and  _1137
REMARK  524  A    between atoms: _1137  and  _1138
REMARK  525  A    between atoms: _1138  and  _1139
REMARK  526  A    between atoms: _1142  and  _1143
REMARK  527  A    between atoms: _1143  and  _1144
REMARK  528  A    between atoms: _1143  and  _1146
REMARK  529  A    between atoms: _1146  and  _1147
REMARK  530  A    between atoms: _1154  and  _1155
REMARK  531  A    between atoms: _1155  and  _1156
REMARK  532  A    between atoms: _1159  and  _1160
REMARK  533  A    between atoms: _1160  and  _1161
REMARK  534  A    between atoms: _1160  and  _1163
REMARK  535  A    between atoms: _1163  and  _1164
REMARK  536  A    between atoms: _1173  and  _1174
REMARK  537  A    between atoms: _1174  and  _1175
REMARK  538  A    between atoms: _1174  and  _1177
REMARK  539  A    between atoms: _1177  and  _1178
REMARK  540  A    between atoms: _1178  and  _1179
REMARK  541  A    between atoms: _1182  and  _1183
REMARK  542  A    between atoms: _1183  and  _1184
REMARK  543  A    between atoms: _1183  and  _1186
REMARK  544  A    between atoms: _1188  and  _1189
REMARK  545  A    between atoms: _1189  and  _1190
REMARK  546  A    between atoms: _1189  and  _1192
REMARK  547  A    between atoms: _1194  and  _1195
REMARK  548  A    between atoms: _1195  and  _1196
REMARK  549  A    between atoms: _1199  and  _1200
REMARK  550  A    between atoms: _1200  and  _1201
REMARK  551  A    between atoms: _1203  and  _1204
REMARK  552  A    between atoms: _1204  and  _1205
REMARK  553  A    between atoms: _1207  and  _1208
REMARK  554  A    between atoms: _1208  and  _1209
REMARK  555  A    between atoms: _1208  and  _1211
REMARK  556  A    between atoms: _1213  and  _1214
REMARK  557  A    between atoms: _1214  and  _1215
REMARK  558  A    between atoms: _1214  and  _1217
REMARK  559  A    between atoms: _1217  and  _1218
REMARK  560  A    between atoms: _1224  and  _1225
REMARK  561  A    between atoms: _1225  and  _1226
REMARK  562  A    between atoms: _1225  and  _1228
REMARK  563  A    between atoms: _1231  and  _1232
REMARK  564  A    between atoms: _1232  and  _1233
REMARK  565  A    between atoms: _1232  and  _1235
REMARK  566  A    between atoms: _1238  and  _1239
REMARK  567  A    between atoms: _1239  and  _1240
REMARK  568  A    between atoms: _1239  and  _1242
REMARK  569  A    between atoms: _1242  and  _1243
REMARK  570  A    between atoms: _1243  and  _1244
REMARK  571  A    between atoms: _1244  and  _1245
REMARK  572  A    between atoms: _1249  and  _1250
REMARK  573  A    between atoms: _1250  and  _1251
REMARK  574  A    between atoms: _1250  and  _1253
REMARK  575  A    between atoms: _1256  and  _1257
REMARK  576  A    between atoms: _1257  and  _1258
REMARK  577  A    between atoms: _1257  and  _1260
REMARK  578  A    between atoms: _1260  and  _1261
REMARK  579  A    between atoms: _1264  and  _1265
REMARK  580  A    between atoms: _1265  and  _1266
REMARK  581  A    between atoms: _1265  and  _1268
REMARK  582  A    between atoms: _1271  and  _1272
REMARK  583  A    between atoms: _1272  and  _1273
REMARK  584  A    between atoms: _1275  and  _1276
REMARK  585  A    between atoms: _1276  and  _1277
REMARK  586  A    between atoms: _1276  and  _1279
REMARK  587  A    between atoms: _1279  and  _1280
REMARK  588  A    between atoms: _1280  and  _1281
REMARK  589  A    between atoms: _1285  and  _1286
REMARK  590  A    between atoms: _1291  and  _1293
REMARK  591  A    between atoms: _1298  and  _1299
REMARK  592  A    between atoms: _1299  and  _1301
REMARK  593  A    between atoms: _1300  and  _1301
REMARK  594  A    between atoms: _1304  and  _1305
REMARK  595  A    between atoms: _1305  and  _1306
REMARK  596  A    between atoms: _1308  and  _1309
REMARK  597  A    between atoms: _1309  and  _1310
REMARK  598  A    between atoms: _1309  and  _1312
REMARK  599  A    between atoms: _1312  and  _1313
REMARK  600  A    between atoms: _1313  and  _1314
REMARK  601  A    between atoms: _1314  and  _1315
REMARK  602  A    between atoms: _1319  and  _1320
REMARK  603  A    between atoms: _1320  and  _1321
REMARK  604  A    between atoms: _1323  and  _1324
REMARK  605  A    between atoms: _1324  and  _1325
REMARK  606  A    between atoms: _1324  and  _1327
REMARK  607  A    between atoms: _1330  and  _1331
REMARK  608  A    between atoms: _1331  and  _1332
REMARK  609  A    between atoms: _1331  and  _1334
REMARK  610  A    between atoms: _1334  and  _1335
REMARK  611  A    between atoms: _1335  and  _1336
REMARK  612  A    between atoms: _1336  and  _1337
REMARK  613  A    between atoms: _1339  and  _1340
REMARK  614  A    between atoms: _1340  and  _1341
REMARK  615  A    between atoms: _1340  and  _1343
REMARK  616  A    between atoms: _1346  and  _1347
REMARK  617  A    between atoms: _1347  and  _1348
REMARK  618  A    between atoms: _1347  and  _1350
REMARK  619  A    between atoms: _1350  and  _1351
REMARK  620  A    between atoms: _1354  and  _1355
REMARK  621  A    between atoms: _1355  and  _1356
REMARK  622  A    between atoms: _1355  and  _1358
REMARK  623  A    between atoms: _1358  and  _1359
REMARK  624  A    between atoms: _1362  and  _1363
REMARK  625  A    between atoms: _1363  and  _1364
REMARK  626  A    between atoms: _1363  and  _1366
REMARK  627  A    between atoms: _1366  and  _1367
REMARK  628  A    between atoms: _1372  and  _1373
REMARK  629  A    between atoms: _1373  and  _1374
REMARK  630  A    between atoms: _1373  and  _1376
REMARK  631  A    between atoms: _1376  and  _1377
REMARK  632  A    between atoms: _1380  and  _1381
REMARK  633  A    between atoms: _1381  and  _1382
REMARK  634  A    between atoms: _1381  and  _1384
REMARK  635  A    between atoms: _1384  and  _1385
REMARK  636  A    between atoms: _1385  and  _1386
REMARK  637  A    between atoms: _1386  and  _1387
REMARK  638  A    between atoms: _1389  and  _1390
REMARK  639  A    between atoms: _1390  and  _1391
REMARK  640  A    between atoms: _1390  and  _1393
REMARK  641  A    between atoms: _1393  and  _1394
REMARK  642  A    between atoms: _1394  and  _1395
REMARK  643  A    between atoms: _1398  and  _1399
REMARK  644  A    between atoms: _1399  and  _1400
REMARK  645  A    between atoms: _1399  and  _1402
REMARK  646  A    between atoms: _1402  and  _1403
REMARK  647  A    between atoms: _1406  and  _1407
REMARK  648  A    between atoms: _1407  and  _1408
REMARK  649  A    between atoms: _1407  and  _1410
REMARK  650  A    between atoms: _1410  and  _1411
REMARK  651  A    between atoms: _1411  and  _1412
REMARK  652  A    between atoms: _1415  and  _1416
REMARK  653  A    between atoms: _1416  and  _1417
REMARK  654  A    between atoms: _1416  and  _1419
REMARK  655  A    between atoms: _1422  and  _1423
REMARK  656  A    between atoms: _1423  and  _1424
REMARK  657  A    between atoms: _1423  and  _1426
REMARK  658  A    between atoms: _1426  and  _1427
REMARK  659  A    between atoms: _1427  and  _1428
REMARK  660  A    between atoms: _1431  and  _1432
REMARK  661  A    between atoms: _1432  and  _1433
REMARK  662  A    between atoms: _1432  and  _1435
REMARK  663  A    between atoms: _1435  and  _1436
REMARK  664  A    between atoms: _1443  and  _1444
REMARK  665  A    between atoms: _1444  and  _1445
REMARK  666  A    between atoms: _1444  and  _1447
REMARK  667  A    between atoms: _1447  and  _1448
REMARK  668  A    between atoms: _1451  and  _1452
REMARK  669  A    between atoms: _1452  and  _1453
REMARK  670  A    between atoms: _1452  and  _1455
REMARK  671  A    between atoms: _1455  and  _1456
REMARK  672  A    between atoms: _1456  and  _1457
REMARK  673  A    between atoms: _1460  and  _1461
REMARK  674  A    between atoms: _1461  and  _1462
REMARK  675  A    between atoms: _1461  and  _1464
REMARK  676  A    between atoms: _1464  and  _1465
REMARK  677  A    between atoms: _1465  and  _1466
REMARK  678  A    between atoms: _1469  and  _1470
REMARK  679  A    between atoms: _1470  and  _1471
REMARK  680  A    between atoms: _1470  and  _1473
REMARK  681  A    between atoms: _1473  and  _1474
REMARK  682  A    between atoms: _1474  and  _1475
REMARK  683  A    between atoms: _1475  and  _1476
REMARK  684  A    between atoms: _1480  and  _1481
REMARK  685  A    between atoms: _1481  and  _1482
REMARK  686  A    between atoms: _1481  and  _1484
REMARK  687  A    between atoms: _1484  and  _1485
REMARK  688  A    between atoms: _1485  and  _1486
REMARK  689  A    between atoms: _1486  and  _1487
REMARK  690  A    between atoms: _1491  and  _1492
REMARK  691  A    between atoms: _1492  and  _1493
REMARK  692  A    between atoms: _1492  and  _1495
REMARK  693  A    between atoms: _1495  and  _1496
REMARK  694  A    between atoms: _1499  and  _1500
REMARK  695  A    between atoms: _1500  and  _1501
REMARK  696  A    between atoms: _1500  and  _1503
REMARK  697  A    between atoms: _1503  and  _1504
REMARK  698  A    between atoms: _1504  and  _1505
REMARK  699  A    between atoms: _1505  and  _1506
REMARK  700  A    between atoms: _1508  and  _1509
REMARK  701  A    between atoms: _1509  and  _1510
REMARK  702  A    between atoms: _1509  and  _1512
REMARK  703  A    between atoms: _1512  and  _1513
REMARK  704  A    between atoms: _1513  and  _1514
REMARK  705  A    between atoms: _1517  and  _1518
REMARK  706  A    between atoms: _1518  and  _1519
REMARK  707  A    between atoms: _1518  and  _1521
REMARK  708  A    between atoms: _1521  and  _1522
REMARK  709  A    between atoms: _1525  and  _1526
REMARK  710  A    between atoms: _1526  and  _1527
REMARK  711  A    between atoms: _1526  and  _1529
REMARK  712  A    between atoms: _1532  and  _1533
REMARK  713  A    between atoms: _1533  and  _1534
REMARK  714  A    between atoms: _1533  and  _1536
REMARK  715  A    between atoms: _1536  and  _1537
REMARK  716  A    between atoms: _1537  and  _1538
REMARK  717  A    between atoms: _1538  and  _1539
REMARK  718  A    between atoms: _1541  and  _1542
REMARK  719  A    between atoms: _1542  and  _1543
REMARK  720  A    between atoms: _1542  and  _1545
REMARK  721  A    between atoms: _1545  and  _1546
REMARK  722  A    between atoms: _1546  and  _1547
REMARK  723  A    between atoms: _1547  and  _1548
REMARK  724  A    between atoms: _1550  and  _1551
REMARK  725  A    between atoms: _1551  and  _1552
REMARK  726  A    between atoms: _1551  and  _1554
REMARK  727  A    between atoms: _1554  and  _1555
REMARK  728  A    between atoms: _1560  and  _1561
REMARK  729  A    between atoms: _1561  and  _1562
REMARK  730  A    between atoms: _1561  and  _1564
REMARK  731  A    between atoms: _1566  and  _1567
REMARK  732  A    between atoms: _1567  and  _1568
REMARK  733  A    between atoms: _1567  and  _1570
REMARK  734  A    between atoms: _1570  and  _1571
REMARK  735  A    between atoms: _1571  and  _1572
REMARK  736  A    between atoms: _1575  and  _1576
REMARK  737  A    between atoms: _1576  and  _1577
REMARK  738  A    between atoms: _1576  and  _1579
REMARK  739  A    between atoms: _1579  and  _1580
REMARK  740  A    between atoms: _1586  and  _1587
REMARK  741  A    between atoms: _1587  and  _1588
REMARK  742  A    between atoms: _1587  and  _1590
REMARK  743  A    between atoms: _1590  and  _1591
REMARK  744  A    between atoms: _1594  and  _1595
REMARK  745  A    between atoms: _1595  and  _1596
REMARK  746  A    between atoms: _1598  and  _1599
REMARK  747  A    between atoms: _1599  and  _1600
REMARK  748  A    between atoms: _1599  and  _1602
REMARK  749  A    between atoms: _1602  and  _1603
REMARK  750  A    between atoms: _1611  and  _1612
REMARK  751  A    between atoms: _1617  and  _1618
REMARK  752  A    between atoms: _1618  and  _1619
REMARK  753  A    between atoms: _1618  and  _1621
REMARK  754  A    between atoms: _1621  and  _1622
REMARK  755  A    between atoms: _1625  and  _1626
REMARK  756  A    between atoms: _1626  and  _1627
REMARK  757  A    between atoms: _1626  and  _1629
REMARK  758  A    between atoms: _1632  and  _1633
REMARK  759  A    between atoms: _1633  and  _1634
REMARK  760  A    between atoms: _1633  and  _1636
REMARK  761  A    between atoms: _1636  and  _1637
REMARK  762  A    between atoms: _1640  and  _1641
REMARK  763  A    between atoms: _1641  and  _1642
REMARK  764  A    between atoms: _1641  and  _1644
REMARK  765  A    between atoms: _1644  and  _1645
REMARK  766  A    between atoms: _1651  and  _1652
REMARK  767  A    between atoms: _1652  and  _1653
REMARK  768  A    between atoms: _1652  and  _1655
REMARK  769  A    between atoms: _1658  and  _1659
REMARK  770  A    between atoms: _1659  and  _1660
REMARK  771  A    between atoms: _1659  and  _1662
REMARK  772  A    between atoms: _1662  and  _1663
REMARK  773  A    between atoms: _1663  and  _1664
REMARK  774  A    between atoms: _1667  and  _1668
REMARK  775  A    between atoms: _1668  and  _1669
REMARK  776  A    between atoms: _1668  and  _1671
REMARK  777  A    between atoms: _1671  and  _1672
REMARK  778  A    between atoms: _1672  and  _1673
REMARK  779  A    between atoms: _1673  and  _1674
REMARK                            x       y       z     vdW  Elec       q    Type
REMARK                         _______ _______ _______ _____ _____    ______ ____
ROOT
ATOM      1  CA  ILE A  34      -4.462  33.360  31.329  0.00  0.00    +0.173 C 
ENDROOT
BRANCH   1   3
ATOM      2  C   LEU A  33      -2.251  32.488  30.757  0.00  0.00    +0.262 C 
ATOM      3  N   ILE A  34      -3.196  32.692  31.668  0.00  0.00    -0.196 NA
ATOM      4  O   LEU A  33      -2.387  32.791  29.620  0.00  0.00    -0.271 OA
BRANCH   2   5
ATOM      5  CA  LEU A  33      -0.935  31.844  31.202  0.00  0.00    +0.173 C 
BRANCH   5   7
ATOM      6  C   GLU A  32      -0.065  33.656  32.555  0.00  0.00    +0.262 C 
ATOM      7  N   LEU A  33      -0.444  32.391  32.449  0.00  0.00    -0.196 NA
ATOM      8  O   GLU A  32      -0.124  34.460  31.617  0.00  0.00    -0.271 OA
BRANCH   6   9
ATOM      9  CA  GLU A  32       0.383  34.122  33.953  0.00  0.00    +0.173 C 
BRANCH   9  11
ATOM     10  C   ARG A  31      -1.847  34.112  35.041  0.00  0.00    +0.262 C 
ATOM     11  N   GLU A  32      -0.556  33.698  34.988  0.00  0.00    -0.196 NA
ATOM     12  O   ARG A  31      -2.365  34.829  34.193  0.00  0.00    -0.271 OA
BRANCH  10  13
ATOM     13  CA  ARG A  31      -2.688  33.622  36.225  0.00  0.00    +0.173 C 
BRANCH  13  15
ATOM     14  C   LEU A  30      -2.705  31.246  35.457  0.00  0.00    +0.262 C 
ATOM     15  N   ARG A  31      -2.472  32.179  36.393  0.00  0.00    -0.196 NA
ATOM     16  O   LEU A  30      -3.153  31.506  34.337  0.00  0.00    -0.271 OA
BRANCH  14  17
ATOM     17  CA  LEU A  30      -2.334  29.788  35.811  0.00  0.00    +0.173 C 
BRANCH  17  19
ATOM     18  C   PHE A  29       0.109  30.047  35.841  0.00  0.00    +0.262 C 
ATOM     19  N   LEU A  30      -1.023  29.694  36.477  0.00  0.00    -0.196 NA
ATOM     20  O   PHE A  29       0.112  30.524  34.709  0.00  0.00    -0.271 OA
BRANCH  18  21
ATOM     21  CA  PHE A  29       1.452  29.853  36.593  0.00  0.00    +0.177 C 
BRANCH  21  23
ATOM     22  C   ILE A  28       0.864  31.543  38.323  0.00  0.00    +0.262 C 
ATOM     23  N   PHE A  29       1.330  30.296  37.998  0.00  0.00    -0.196 NA
ATOM     24  O   ILE A  28       0.458  32.342  37.477  0.00  0.00    -0.271 OA
BRANCH  22  25
ATOM     25  CA  ILE A  28       0.780  31.940  39.827  0.00  0.00    +0.173 C 
BRANCH  25  27
ATOM     26  C   GLU A  27      -0.432  29.873  40.537  0.00  0.00    +0.262 C 
ATOM     27  N   ILE A  28       0.579  30.774  40.698  0.00  0.00    -0.196 NA
ATOM     28  O   GLU A  27      -1.302  29.984  39.659  0.00  0.00    -0.271 OA
BRANCH  26  29
ATOM     29  CA  GLU A  27      -0.495  28.667  41.505  0.00  0.00    +0.173 C 
BRANCH  29  31
ATOM     30  C   LYS A  26       1.911  28.059  41.549  0.00  0.00    +0.262 C 
ATOM     31  N   GLU A  27       0.765  28.320  42.200  0.00  0.00    -0.196 NA
ATOM     32  O   LYS A  26       2.038  28.168  40.333  0.00  0.00    -0.271 OA
BRANCH  30  33
ATOM     33  CA  LYS A  26       3.134  27.640  42.359  0.00  0.00    +0.173 C 
BRANCH  33  35
ATOM     34  C   ASN A  25       3.186  29.341  44.147  0.00  0.00    +0.262 C 
ATOM     35  N   LYS A  26       3.098  28.046  43.769  0.00  0.00    -0.196 NA
ATOM     36  O   ASN A  25       3.200  30.281  43.331  0.00  0.00    -0.271 OA
BRANCH  34  37
ATOM     37  CA  ASN A  25       3.277  29.601  45.677  0.00  0.00    +0.182 C 
BRANCH  37  40
ATOM     38  C   SER A  24       4.237  27.541  46.651  0.00  0.00    +0.264 C 
ATOM     39  O   SER A  24       3.183  26.922  46.487  0.00  0.00    -0.271 OA
ATOM     40  N   ASN A  25       4.388  28.820  46.271  0.00  0.00    -0.196 NA
BRANCH  38  41
ATOM     41  CA  SER A  24       5.430  26.815  47.296  0.00  0.00    +0.205 C 
BRANCH  41  43
ATOM     42  C   TYR A  23       7.459  27.212  45.971  0.00  0.00    +0.262 C 
ATOM     43  N   SER A  24       6.733  27.438  47.077  0.00  0.00    -0.194 NA
ATOM     44  O   TYR A  23       7.058  26.516  45.030  0.00  0.00    -0.271 OA
BRANCH  42  45
ATOM     45  CA  TYR A  23       8.860  27.827  45.938  0.00  0.00    +0.177 C 
BRANCH  45  48
ATOM     46  C   PHE A  22      11.078  26.923  46.503  0.00  0.00    +0.262 C 
ATOM     47  O   PHE A  22      11.469  28.010  46.951  0.00  0.00    -0.271 OA
ATOM     48  N   TYR A  23       9.857  26.749  45.990  0.00  0.00    -0.196 NA
BRANCH  46  49
ATOM     49  CA  PHE A  22      12.047  25.738  46.407  0.00  0.00    +0.177 C 
BRANCH  49  51
ATOM     50  C   THR A  21      12.926  26.265  44.176  0.00  0.00    +0.264 C 
ATOM     51  N   PHE A  22      13.106  26.197  45.508  0.00  0.00    -0.196 NA
ATOM     52  O   THR A  21      11.912  25.842  43.610  0.00  0.00    -0.271 OA
BRANCH  50  53
ATOM     53  CA  THR A  21      14.086  26.849  43.363  0.00  0.00    +0.203 C 
BRANCH  53  54
ATOM     54  CB  THR A  21      13.961  28.354  43.029  0.00  0.00    +0.181 C 
ATOM     55  CG2 THR A  21      13.709  29.234  44.267  0.00  0.00    +0.038 C 
ATOM     56  OG1 THR A  21      15.172  28.785  42.392  0.00  0.00    -0.221 OA
ENDBRANCH  53  54
BRANCH  53  59
ATOM     57  C   ASN A  20      15.029  24.947  42.200  0.00  0.00    +0.262 C 
ATOM     58  O   ASN A  20      15.546  24.561  43.226  0.00  0.00    -0.271 OA
ATOM     59  N   THR A  21      14.295  26.049  42.159  0.00  0.00    -0.194 NA
BRANCH  57  60
ATOM     60  CA  ASN A  20      15.219  24.136  40.900  0.00  0.00    +0.182 C 
BRANCH  60  63
ATOM     61  C   ILE A  19      13.349  23.839  39.383  0.00  0.00    +0.262 C 
ATOM     62  O   ILE A  19      12.842  22.924  40.037  0.00  0.00    -0.271 OA
ATOM     63  N   ASN A  20      14.452  24.475  39.722  0.00  0.00    -0.196 NA
BRANCH  61  64
ATOM     64  CA  ILE A  19      12.683  24.277  38.068  0.00  0.00    +0.173 C 
BRANCH  64  67
ATOM     65  C   ILE A  18      12.146  26.630  38.535  0.00  0.00    +0.262 C 
ATOM     66  O   ILE A  18      11.434  26.346  39.500  0.00  0.00    -0.271 OA
ATOM     67  N   ILE A  19      12.788  25.719  37.817  0.00  0.00    -0.196 NA
BRANCH  65  68
ATOM     68  CA  ILE A  18      12.320  28.102  38.105  0.00  0.00    +0.173 C 
BRANCH  68  71
ATOM     69  C   LEU A  17      14.684  28.335  38.765  0.00  0.00    +0.262 C 
ATOM     70  O   LEU A  17      14.457  27.926  39.901  0.00  0.00    -0.271 OA
ATOM     71  N   ILE A  18      13.721  28.429  37.829  0.00  0.00    -0.196 NA
BRANCH  69  72
ATOM     72  CA  LEU A  17      16.126  28.720  38.350  0.00  0.00    +0.173 C 
BRANCH  72  75
ATOM     73  C   SER A  16      16.437  26.703  36.947  0.00  0.00    +0.264 C 
ATOM     74  O   SER A  16      16.131  25.936  37.863  0.00  0.00    -0.271 OA
ATOM     75  N   LEU A  17      16.451  28.047  37.084  0.00  0.00    -0.196 NA
BRANCH  73  76
ATOM     76  CA  SER A  16      16.703  26.126  35.556  0.00  0.00    +0.205 C 
BRANCH  76  79
ATOM     77  C   MET A  15      14.705  27.007  34.453  0.00  0.00    +0.262 C 
ATOM     78  O   MET A  15      13.971  26.462  35.267  0.00  0.00    -0.271 OA
ATOM     79  N   SER A  16      16.039  26.935  34.520  0.00  0.00    -0.194 NA
BRANCH  77  80
ATOM     80  CA  MET A  15      14.096  27.908  33.371  0.00  0.00    +0.174 C 
BRANCH  80  83
ATOM     81  C   LEU A  14      14.885  30.047  34.281  0.00  0.00    +0.262 C 
ATOM     82  O   LEU A  14      14.362  29.838  35.385  0.00  0.00    -0.271 OA
ATOM     83  N   MET A  15      14.808  29.181  33.255  0.00  0.00    -0.196 NA
BRANCH  81  84
ATOM     84  CA  LEU A  14      15.667  31.344  34.032  0.00  0.00    +0.173 C 
BRANCH  84  87
ATOM     85  C   GLN A  13      17.877  30.297  33.857  0.00  0.00    +0.262 C 
ATOM     86  O   GLN A  13      17.733  29.711  34.933  0.00  0.00    -0.271 OA
ATOM     87  N   LEU A  14      16.921  31.077  33.316  0.00  0.00    -0.196 NA
BRANCH  85  88
ATOM     88  CA  GLN A  13      19.131  30.050  33.014  0.00  0.00    +0.173 C 
BRANCH  88  91
ATOM     89  C   ALA A  12      18.050  28.682  31.249  0.00  0.00    +0.262 C 
ATOM     90  O   ALA A  12      17.596  27.879  32.073  0.00  0.00    -0.271 OA
ATOM     91  N   GLN A  13      18.766  29.775  31.613  0.00  0.00    -0.196 NA
BRANCH  89  92
ATOM     92  CA  ALA A  12      17.700  28.530  29.734  0.00  0.00    +0.173 C 
ATOM     93  CB  ALA A  12      18.914  28.014  28.952  0.00  0.00    +0.033 C 
BRANCH  92  96
ATOM     94  C   ILE A  11      16.249  30.530  29.725  0.00  0.00    +0.262 C 
ATOM     95  O   ILE A  11      15.592  30.134  30.686  0.00  0.00    -0.271 OA
ATOM     96  N   ALA A  12      17.289  29.835  29.211  0.00  0.00    -0.196 NA
BRANCH  94  97
ATOM     97  CA  ILE A  11      15.942  31.921  29.127  0.00  0.00    +0.173 C 
BRANCH  97 100
ATOM     98  C   GLU A  10      17.923  33.085  29.962  0.00  0.00    +0.262 C 
ATOM     99  O   GLU A  10      17.601  32.893  31.138  0.00  0.00    -0.271 OA
ATOM    100  N   ILE A  11      17.175  32.684  28.922  0.00  0.00    -0.196 NA
BRANCH  98 101
ATOM    101  CA  GLU A  10      19.213  33.855  29.635  0.00  0.00    +0.173 C 
BRANCH 101 104
ATOM    102  C   ALA A   9      20.414  31.955  28.539  0.00  0.00    +0.262 C 
ATOM    103  O   ALA A   9      20.217  31.169  29.473  0.00  0.00    -0.271 OA
ATOM    104  N   GLU A  10      19.940  33.216  28.528  0.00  0.00    -0.196 NA
BRANCH 102 105
ATOM    105  CA  ALA A   9      21.173  31.469  27.279  0.00  0.00    +0.173 C 
ATOM    106  CB  ALA A   9      22.584  32.062  27.235  0.00  0.00    +0.033 C 
BRANCH 105 109
ATOM    107  C   GLN A   8      19.138  31.551  25.841  0.00  0.00    +0.262 C 
ATOM    108  O   GLN A   8      18.398  31.083  26.722  0.00  0.00    -0.271 OA
ATOM    109  N   ALA A   9      20.464  31.738  26.017  0.00  0.00    -0.196 NA
BRANCH 107 110
ATOM    110  CA  GLN A   8      18.557  31.833  24.436  0.00  0.00    +0.173 C 
BRANCH 110 113
ATOM    111  C   PHE A   7      17.934  29.462  24.261  0.00  0.00    +0.262 C 
ATOM    112  O   PHE A   7      19.107  29.080  24.404  0.00  0.00    -0.271 OA
ATOM    113  N   GLN A   8      17.578  30.761  24.209  0.00  0.00    -0.196 NA
BRANCH 111 114
ATOM    114  CA  PHE A   7      16.810  28.433  24.223  0.00  0.00    +0.177 C 
BRANCH 114 116
ATOM    115  C   ALA A   6      17.772  27.130  22.420  0.00  0.00    +0.262 C 
ATOM    116  N   PHE A   7      17.354  27.188  23.696  0.00  0.00    -0.196 NA
ATOM    117  O   ALA A   6      17.625  28.068  21.636  0.00  0.00    -0.271 OA
BRANCH 115 118
ATOM    118  CA  ALA A   6      18.522  25.874  21.958  0.00  0.00    +0.173 C 
ATOM    119  CB  ALA A   6      20.019  26.163  21.959  0.00  0.00    +0.033 C 
BRANCH 118 122
ATOM    120  C   PHE A   5      17.005  24.844  20.381  0.00  0.00    +0.262 C 
ATOM    121  O   PHE A   5      16.353  24.303  21.285  0.00  0.00    -0.271 OA
ATOM    122  N   ALA A   6      18.075  25.592  20.601  0.00  0.00    -0.196 NA
BRANCH 120 123
ATOM    123  CA  PHE A   5      16.560  24.712  18.940  0.00  0.00    +0.177 C 
BRANCH 123 125
ATOM    124  C   THR A   4      16.184  22.558  17.760  0.00  0.00    +0.264 C 
ATOM    125  N   PHE A   5      15.884  23.423  18.743  0.00  0.00    -0.196 NA
ATOM    126  O   THR A   4      17.089  22.742  16.936  0.00  0.00    -0.271 OA
BRANCH 124 127
ATOM    127  CA  THR A   4      15.355  21.273  17.700  0.00  0.00    +0.203 C 
BRANCH 127 128
ATOM    128  CB  THR A   4      16.108  20.072  18.297  0.00  0.00    +0.181 C 
ATOM    129  CG2 THR A   4      16.544  20.311  19.726  0.00  0.00    +0.038 C 
ATOM    130  OG1 THR A   4      15.279  18.904  18.255  0.00  0.00    -0.221 OA
ENDBRANCH 127 128
BRANCH 127 133
ATOM    131  C   GLU A   3      13.733  21.185  15.857  0.00  0.00    +0.262 C 
ATOM    132  O   GLU A   3      12.795  21.555  16.561  0.00  0.00    -0.271 OA
ATOM    133  N   THR A   4      14.971  21.017  16.315  0.00  0.00    -0.194 NA
BRANCH 131 134
ATOM    134  CA  GLU A   3      13.493  20.891  14.390  0.00  0.00    +0.173 C 
BRANCH 134 136
ATOM    135  C   VAL A   2      12.266  18.824  13.950  0.00  0.00    +0.262 C 
ATOM    136  N   GLU A   3      12.249  20.128  14.246  0.00  0.00    -0.196 NA
ATOM    137  O   VAL A   2      13.303  18.197  13.725  0.00  0.00    -0.271 OA
BRANCH 135 138
ATOM    138  CA  VAL A   2      10.928  18.100  13.857  0.00  0.00    +0.173 C 
BRANCH 138 140
ATOM    139  C   GLU A   1      10.038  17.912  11.551  0.00  0.00    +0.259 C 
ATOM    140  N   VAL A   2      10.860  17.501  12.517  0.00  0.00    -0.197 NA
ATOM    141  O   GLU A   1       9.281  18.863  11.697  0.00  0.00    -0.272 OA
BRANCH 139 143
ATOM    142  N   GLU A   1      11.375  17.421   9.502  0.00  0.00    -0.123 NA
ATOM    143  CA  GLU A   1      10.103  17.184  10.182  0.00  0.00    +0.170 C 
BRANCH 143 144
ATOM    144  CB  GLU A   1       9.772  15.667  10.270  0.00  0.00    +0.040 C 
BRANCH 144 145
ATOM    145  CG  GLU A   1      10.654  14.776  11.150  0.00  0.00    +0.116 C 
BRANCH 145 146
ATOM    146  CD  GLU A   1      12.159  14.825  10.950  0.00  0.00    +0.365 C 
ATOM    147  OE2 GLU A   1      12.878  15.044  11.951  0.00  0.00    -0.246 OA
ATOM    148  OE1 GLU A   1      12.618  14.663   9.796  0.00  0.00    -0.246 OA
ENDBRANCH 145 146
ENDBRANCH 144 145
ENDBRANCH 143 144
ENDBRANCH 139 143
ENDBRANCH 138 140
BRANCH 138 149
ATOM    149  CB  VAL A   2      10.776  17.033  14.969  0.00  0.00    +0.029 C 
ATOM    150  CG2 VAL A   2      10.912  17.648  16.366  0.00  0.00    +0.002 C 
ATOM    151  CG1 VAL A   2       9.460  16.268  14.830  0.00  0.00    +0.002 C 
ENDBRANCH 138 149
ENDBRANCH 135 138
ENDBRANCH 134 136
BRANCH 134 152
ATOM    152  CB  GLU A   3      13.442  22.203  13.606  0.00  0.00    +0.043 C 
BRANCH 152 153
ATOM    153  CG  GLU A   3      13.451  22.050  12.094  0.00  0.00    +0.116 C 
BRANCH 153 154
ATOM    154  CD  GLU A   3      13.424  23.393  11.391  0.00  0.00    +0.365 C 
ATOM    155  OE2 GLU A   3      12.430  24.137  11.559  0.00  0.00    -0.246 OA
ATOM    156  OE1 GLU A   3      14.407  23.711  10.686  0.00  0.00    -0.246 OA
ENDBRANCH 153 154
ENDBRANCH 152 153
ENDBRANCH 134 152
ENDBRANCH 131 134
ENDBRANCH 127 133
ENDBRANCH 124 127
ENDBRANCH 123 125
BRANCH 123 157
ATOM    157  CB  PHE A   5      15.589  25.876  18.634  0.00  0.00    +0.057 C 
BRANCH 157 158
ATOM    158  CG  PHE A   5      14.970  25.812  17.262  0.00  0.00    -0.020 A 
ATOM    159  CD2 PHE A   5      13.763  25.155  17.057  0.00  0.00    -0.004 A 
ATOM    160  CE2 PHE A   5      13.205  25.066  15.776  0.00  0.00    -0.000 A 
ATOM    161  CZ  PHE A   5      13.850  25.645  14.700  0.00  0.00    -0.000 A 
ATOM    162  CE1 PHE A   5      15.044  26.304  14.883  0.00  0.00    -0.000 A 
ATOM    163  CD1 PHE A   5      15.602  26.393  16.169  0.00  0.00    -0.004 A 
ENDBRANCH 157 158
ENDBRANCH 123 157
ENDBRANCH 120 123
ENDBRANCH 118 122
ENDBRANCH 115 118
ENDBRANCH 114 116
BRANCH 114 164
ATOM    164  CB  PHE A   7      16.355  28.239  25.672  0.00  0.00    +0.057 C 
BRANCH 164 165
ATOM    165  CG  PHE A   7      15.023  27.557  25.784  0.00  0.00    -0.020 A 
ATOM    166  CD2 PHE A   7      14.934  26.252  26.245  0.00  0.00    -0.004 A 
ATOM    167  CE2 PHE A   7      13.685  25.629  26.392  0.00  0.00    -0.000 A 
ATOM    168  CZ  PHE A   7      12.530  26.316  26.063  0.00  0.00    -0.000 A 
ATOM    169  CE1 PHE A   7      12.605  27.610  25.591  0.00  0.00    -0.000 A 
ATOM    170  CD1 PHE A   7      13.846  28.241  25.479  0.00  0.00    -0.004 A 
ENDBRANCH 164 165
ENDBRANCH 114 164
ENDBRANCH 111 114
ENDBRANCH 110 113
BRANCH 110 171
ATOM    171  CB  GLN A   8      17.874  33.205  24.435  0.00  0.00    +0.041 C 
BRANCH 171 172
ATOM    172  CG  GLN A   8      17.417  33.654  23.043  0.00  0.00    +0.091 C 
BRANCH 172 173
ATOM    173  CD  GLN A   8      17.604  35.130  22.797  0.00  0.00    +0.261 C 
ATOM    174  OE1 GLN A   8      17.072  35.991  23.516  0.00  0.00    -0.272 OA
ATOM    175  NE2 GLN A   8      18.332  35.456  21.738  0.00  0.00    -0.088 NA
ENDBRANCH 172 173
ENDBRANCH 171 172
ENDBRANCH 110 171
ENDBRANCH 107 110
ENDBRANCH 105 109
ENDBRANCH 102 105
ENDBRANCH 101 104
BRANCH 101 176
ATOM    176  CB  GLU A  10      18.864  35.332  29.307  0.00  0.00    +0.043 C 
BRANCH 176 177
ATOM    177  CG  GLU A  10      20.064  36.238  29.061  0.00  0.00    +0.116 C 
BRANCH 177 178
ATOM    178  CD  GLU A  10      20.690  36.162  27.677  0.00  0.00    +0.365 C 
ATOM    179  OE2 GLU A  10      21.781  36.751  27.492  0.00  0.00    -0.246 OA
ATOM    180  OE1 GLU A  10      20.106  35.500  26.786  0.00  0.00    -0.246 OA
ENDBRANCH 177 178
ENDBRANCH 176 177
ENDBRANCH 101 176
ENDBRANCH  98 101
ENDBRANCH  97 100
BRANCH  97 181
ATOM    181  CB  ILE A  11      15.064  31.873  27.846  0.00  0.00    +0.029 C 
ATOM    182  CG2 ILE A  11      13.833  30.958  28.064  0.00  0.00    +0.002 C 
BRANCH 181 183
ATOM    183  CG1 ILE A  11      14.641  33.309  27.425  0.00  0.00    +0.002 C 
ATOM    184  CD1 ILE A  11      14.011  33.429  25.990  0.00  0.00    +0.000 C 
ENDBRANCH 181 183
ENDBRANCH  97 181
ENDBRANCH  94  97
ENDBRANCH  92  96
ENDBRANCH  89  92
ENDBRANCH  88  91
BRANCH  88 185
ATOM    185  CB  GLN A  13      20.092  31.240  33.112  0.00  0.00    +0.041 C 
BRANCH 185 186
ATOM    186  CG  GLN A  13      21.482  30.918  32.568  0.00  0.00    +0.091 C 
BRANCH 186 187
ATOM    187  CD  GLN A  13      22.324  32.134  32.241  0.00  0.00    +0.261 C 
ATOM    188  OE1 GLN A  13      21.940  33.290  32.471  0.00  0.00    -0.272 OA
ATOM    189  NE2 GLN A  13      23.500  31.889  31.677  0.00  0.00    -0.088 NA
ENDBRANCH 186 187
ENDBRANCH 185 186
ENDBRANCH  88 185
ENDBRANCH  85  88
ENDBRANCH  84  87
BRANCH  84 190
ATOM    190  CB  LEU A  14      14.797  32.364  33.277  0.00  0.00    +0.031 C 
BRANCH 190 191
ATOM    191  CG  LEU A  14      13.434  32.679  33.944  0.00  0.00    +0.002 C 
ATOM    192  CD2 LEU A  14      13.609  33.162  35.407  0.00  0.00    +0.000 C 
ATOM    193  CD1 LEU A  14      12.636  33.667  33.139  0.00  0.00    +0.000 C 
ENDBRANCH 190 191
ENDBRANCH  84 190
ENDBRANCH  81  84
ENDBRANCH  80  83
BRANCH  80 194
ATOM    194  CB  MET A  15      13.989  27.210  32.015  0.00  0.00    +0.043 C 
BRANCH 194 195
ATOM    195  CG  MET A  15      13.101  27.974  31.039  0.00  0.00    +0.060 C 
BRANCH 195 196
ATOM    196  SD  MET A  15      13.048  27.233  29.391  0.00  0.00    -0.139 S 
ATOM    197  CE  MET A  15      12.057  25.837  29.706  0.00  0.00    +0.069 C 
ENDBRANCH 195 196
ENDBRANCH 194 195
ENDBRANCH  80 194
ENDBRANCH  77  80
ENDBRANCH  76  79
BRANCH  76 198
ATOM    198  CB  SER A  16      18.197  25.973  35.279  0.00  0.00    +0.213 C 
ATOM    199  OG  SER A  16      18.818  27.242  35.213  0.00  0.00    -0.218 OA
ENDBRANCH  76 198
ENDBRANCH  73  76
ENDBRANCH  72  75
BRANCH  72 200
ATOM    200  CB  LEU A  17      16.256  30.252  38.193  0.00  0.00    +0.031 C 
BRANCH 200 201
ATOM    201  CG  LEU A  17      16.174  31.095  39.476  0.00  0.00    +0.002 C 
ATOM    202  CD2 LEU A  17      14.711  31.363  39.892  0.00  0.00    +0.000 C 
ATOM    203  CD1 LEU A  17      16.915  32.406  39.303  0.00  0.00    +0.000 C 
ENDBRANCH 200 201
ENDBRANCH  72 200
ENDBRANCH  69  72
ENDBRANCH  68  71
BRANCH  68 204
ATOM    204  CB  ILE A  18      11.426  28.500  36.896  0.00  0.00    +0.029 C 
ATOM    205  CG2 ILE A  18      10.018  27.900  37.005  0.00  0.00    +0.002 C 
BRANCH 204 206
ATOM    206  CG1 ILE A  18      11.360  30.049  36.761  0.00  0.00    +0.002 C 
ATOM    207  CD1 ILE A  18      10.852  30.527  35.435  0.00  0.00    +0.000 C 
ENDBRANCH 204 206
ENDBRANCH  68 204
ENDBRANCH  65  68
ENDBRANCH  64  67
BRANCH  64 208
ATOM    208  CB  ILE A  19      13.232  23.511  36.833  0.00  0.00    +0.029 C 
ATOM    209  CG2 ILE A  19      13.455  22.007  37.109  0.00  0.00    +0.002 C 
BRANCH 208 210
ATOM    210  CG1 ILE A  19      12.274  23.718  35.625  0.00  0.00    +0.002 C 
ATOM    211  CD1 ILE A  19      12.863  23.440  34.335  0.00  0.00    +0.000 C 
ENDBRANCH 208 210
ENDBRANCH  64 208
ENDBRANCH  61  64
ENDBRANCH  60  63
BRANCH  60 212
ATOM    212  CB  ASN A  20      16.692  24.021  40.506  0.00  0.00    +0.120 C 
BRANCH 212 213
ATOM    213  CG  ASN A  20      16.920  22.938  39.467  0.00  0.00    +0.263 C 
ATOM    214  OD1 ASN A  20      16.548  21.799  39.659  0.00  0.00    -0.272 OA
ATOM    215  ND2 ASN A  20      17.486  23.306  38.355  0.00  0.00    -0.088 NA
ENDBRANCH 212 213
ENDBRANCH  60 212
ENDBRANCH  57  60
ENDBRANCH  53  59
ENDBRANCH  50  53
ENDBRANCH  49  51
BRANCH  49 216
ATOM    216  CB  PHE A  22      12.611  25.356  47.799  0.00  0.00    +0.057 C 
BRANCH 216 217
ATOM    217  CG  PHE A  22      11.530  24.847  48.725  0.00  0.00    -0.020 A 
ATOM    218  CD2 PHE A  22      10.880  25.710  49.603  0.00  0.00    -0.004 A 
ATOM    219  CE2 PHE A  22       9.855  25.249  50.429  0.00  0.00    -0.000 A 
ATOM    220  CZ  PHE A  22       9.475  23.926  50.386  0.00  0.00    -0.000 A 
ATOM    221  CE1 PHE A  22      10.106  23.052  49.524  0.00  0.00    -0.000 A 
ATOM    222  CD1 PHE A  22      11.134  23.512  48.694  0.00  0.00    -0.004 A 
ENDBRANCH 216 217
ENDBRANCH  49 216
ENDBRANCH  46  49
ENDBRANCH  45  48
BRANCH  45 223
ATOM    223  CB  TYR A  23       9.092  28.717  44.685  0.00  0.00    +0.057 C 
BRANCH 223 224
ATOM    224  CG  TYR A  23       8.191  29.927  44.605  0.00  0.00    -0.020 A 
ATOM    225  CD2 TYR A  23       8.490  31.093  45.308  0.00  0.00    -0.001 A 
ATOM    226  CE2 TYR A  23       7.658  32.210  45.244  0.00  0.00    +0.042 A 
ATOM    227  CZ  TYR A  23       6.529  32.181  44.439  0.00  0.00    +0.196 A 
ATOM    228  OH  TYR A  23       5.703  33.275  44.371  0.00  0.00    -0.287 OA
ATOM    229  CE1 TYR A  23       6.242  31.052  43.689  0.00  0.00    +0.042 A 
ATOM    230  CD1 TYR A  23       7.065  29.929  43.784  0.00  0.00    -0.001 A 
ENDBRANCH 223 224
ENDBRANCH  45 223
ENDBRANCH  42  45
ENDBRANCH  41  43
BRANCH  41 231
ATOM    231  CB  SER A  24       5.177  26.602  48.788  0.00  0.00    +0.213 C 
ATOM    232  OG  SER A  24       6.168  25.759  49.358  0.00  0.00    -0.218 OA
ENDBRANCH  41 231
ENDBRANCH  38  41
ENDBRANCH  37  40
BRANCH  37 233
ATOM    233  CB  ASN A  25       3.444  31.093  46.029  0.00  0.00    +0.120 C 
BRANCH 233 234
ATOM    234  CG  ASN A  25       2.365  31.999  45.490  0.00  0.00    +0.263 C 
ATOM    235  OD1 ASN A  25       1.178  31.649  45.463  0.00  0.00    -0.272 OA
ATOM    236  ND2 ASN A  25       2.768  33.164  45.005  0.00  0.00    -0.088 NA
ENDBRANCH 233 234
ENDBRANCH  37 233
ENDBRANCH  34  37
ENDBRANCH  33  35
BRANCH  33 237
ATOM    237  CB  LYS A  26       3.396  26.139  42.198  0.00  0.00    +0.031 C 
BRANCH 237 238
ATOM    238  CG  LYS A  26       4.771  25.714  42.736  0.00  0.00    +0.004 C 
BRANCH 238 239
ATOM    239  CD  LYS A  26       5.088  24.251  42.447  0.00  0.00    +0.021 C 
BRANCH 239 240
ATOM    240  CE  LYS A  26       6.342  23.787  43.169  0.00  0.00    +0.109 C 
ATOM    241  NZ  LYS A  26       7.574  24.335  42.553  0.00  0.00    -0.131 NA
ENDBRANCH 239 240
ENDBRANCH 238 239
ENDBRANCH 237 238
ENDBRANCH  33 237
ENDBRANCH  30  33
ENDBRANCH  29  31
BRANCH  29 242
ATOM    242  CB  GLU A  27      -1.635  28.874  42.499  0.00  0.00    +0.043 C 
BRANCH 242 243
ATOM    243  CG  GLU A  27      -1.531  30.159  43.304  0.00  0.00    +0.116 C 
BRANCH 243 244
ATOM    244  CD  GLU A  27      -2.658  30.285  44.308  0.00  0.00    +0.365 C 
ATOM    245  OE2 GLU A  27      -2.823  29.359  45.127  0.00  0.00    -0.246 OA
ATOM    246  OE1 GLU A  27      -3.427  31.265  44.222  0.00  0.00    -0.246 OA
ENDBRANCH 243 244
ENDBRANCH 242 243
ENDBRANCH  29 242
ENDBRANCH  26  29
ENDBRANCH  25  27
BRANCH  25 247
ATOM    247  CB  ILE A  28       2.000  32.815  40.268  0.00  0.00    +0.029 C 
ATOM    248  CG2 ILE A  28       1.790  33.351  41.680  0.00  0.00    +0.002 C 
BRANCH 247 249
ATOM    249  CG1 ILE A  28       3.329  32.020  40.154  0.00  0.00    +0.002 C 
ATOM    250  CD1 ILE A  28       4.535  32.803  39.712  0.00  0.00    +0.000 C 
ENDBRANCH 247 249
ENDBRANCH  25 247
ENDBRANCH  22  25
ENDBRANCH  21  23
BRANCH  21 251
ATOM    251  CB  PHE A  29       1.938  28.379  36.497  0.00  0.00    +0.057 C 
BRANCH 251 252
ATOM    252  CG  PHE A  29       0.829  27.370  36.633  0.00  0.00    -0.020 A 
ATOM    253  CD2 PHE A  29       0.438  26.904  37.888  0.00  0.00    -0.004 A 
ATOM    254  CE2 PHE A  29      -0.642  26.005  38.019  0.00  0.00    -0.000 A 
ATOM    255  CZ  PHE A  29      -1.352  25.610  36.900  0.00  0.00    -0.000 A 
ATOM    256  CE1 PHE A  29      -0.993  26.082  35.655  0.00  0.00    -0.000 A 
ATOM    257  CD1 PHE A  29       0.094  26.961  35.516  0.00  0.00    -0.004 A 
ENDBRANCH 251 252
ENDBRANCH  21 251
ENDBRANCH  18  21
ENDBRANCH  17  19
BRANCH  17 258
ATOM    258  CB  LEU A  30      -3.429  29.097  36.637  0.00  0.00    +0.031 C 
BRANCH 258 259
ATOM    259  CG  LEU A  30      -4.761  28.906  35.907  0.00  0.00    +0.002 C 
ATOM    260  CD2 LEU A  30      -5.727  28.120  36.765  0.00  0.00    +0.000 C 
ATOM    261  CD1 LEU A  30      -4.564  28.276  34.520  0.00  0.00    +0.000 C 
ENDBRANCH 258 259
ENDBRANCH  17 258
ENDBRANCH  14  17
ENDBRANCH  13  15
BRANCH  13 262
ATOM    262  CB  ARG A  31      -2.237  34.374  37.511  0.00  0.00    +0.035 C 
BRANCH 262 263
ATOM    263  CG  ARG A  31      -2.164  35.914  37.379  0.00  0.00    +0.049 C 
BRANCH 263 264
ATOM    264  CD  ARG A  31      -1.499  36.593  38.581  0.00  0.00    +0.220 C 
BRANCH 264 265
ATOM    265  NE  ARG A  31      -0.050  36.366  38.626  0.00  0.00    -0.087 NA
ATOM    266  CZ  ARG A  31       0.718  36.558  39.698  0.00  0.00    +0.535 C 
ATOM    267  NH2 ARG A  31       0.183  36.969  40.844  0.00  0.00    +0.135 NA
ATOM    268  NH1 ARG A  31       2.027  36.334  39.634  0.00  0.00    +0.135 NA
ENDBRANCH 264 265
ENDBRANCH 263 264
ENDBRANCH 262 263
ENDBRANCH  13 262
ENDBRANCH  10  13
ENDBRANCH   9  11
BRANCH   9 269
ATOM    269  CB  GLU A  32       1.822  33.696  34.280  0.00  0.00    +0.043 C 
BRANCH 269 270
ATOM    270  CG  GLU A  32       2.375  34.335  35.553  0.00  0.00    +0.116 C 
BRANCH 270 271
ATOM    271  CD  GLU A  32       2.290  35.853  35.642  0.00  0.00    +0.365 C 
ATOM    272  OE2 GLU A  32       2.019  36.362  36.752  0.00  0.00    -0.246 OA
ATOM    273  OE1 GLU A  32       2.470  36.534  34.608  0.00  0.00    -0.246 OA
ENDBRANCH 270 271
ENDBRANCH 269 270
ENDBRANCH   9 269
ENDBRANCH   6   9
ENDBRANCH   5   7
BRANCH   5 274
ATOM    274  CB  LEU A  33      -1.052  30.330  31.278  0.00  0.00    +0.031 C 
BRANCH 274 275
ATOM    275  CG  LEU A  33       0.286  29.637  31.516  0.00  0.00    +0.002 C 
ATOM    276  CD2 LEU A  33       0.090  28.160  31.749  0.00  0.00    +0.000 C 
ATOM    277  CD1 LEU A  33       1.215  29.869  30.349  0.00  0.00    +0.000 C 
ENDBRANCH 274 275
ENDBRANCH   5 274
ENDBRANCH   2   5
ENDBRANCH   1   3
BRANCH   1 278
ATOM    278  C   ILE A  34      -4.180  34.819  30.876  0.00  0.00    +0.262 C 
ATOM    279  N   SER A  35      -3.229  35.508  31.539  0.00  0.00    -0.194 NA
ATOM    280  O   ILE A  34      -4.787  35.295  29.913  0.00  0.00    -0.271 OA
BRANCH 279 281
ATOM    281  CA  SER A  35      -2.861  36.880  31.146  0.00  0.00    +0.205 C 
BRANCH 281 282
ATOM    282  C   SER A  35      -2.299  36.878  29.685  0.00  0.00    +0.264 C 
ATOM    283  N   ASN A  36      -1.473  35.862  29.336  0.00  0.00    -0.196 NA
ATOM    284  O   SER A  35      -2.679  37.737  28.877  0.00  0.00    -0.271 OA
BRANCH 283 285
ATOM    285  CA  ASN A  36      -0.915  35.727  27.992  0.00  0.00    +0.182 C 
BRANCH 285 286
ATOM    286  C   ASN A  36      -2.035  35.533  26.971  0.00  0.00    +0.262 C 
ATOM    287  N   SER A  37      -2.998  34.644  27.293  0.00  0.00    -0.194 NA
ATOM    288  O   ASN A  36      -2.053  36.219  25.947  0.00  0.00    -0.271 OA
BRANCH 287 289
ATOM    289  CA  SER A  37      -4.149  34.367  26.439  0.00  0.00    +0.205 C 
BRANCH 289 290
ATOM    290  C   SER A  37      -4.951  35.693  26.221  0.00  0.00    +0.264 C 
ATOM    291  N   SER A  38      -5.175  36.457  27.298  0.00  0.00    -0.194 NA
ATOM    292  O   SER A  37      -5.313  36.025  25.086  0.00  0.00    -0.271 OA
BRANCH 291 293
ATOM    293  CA  SER A  38      -5.887  37.747  27.260  0.00  0.00    +0.205 C 
BRANCH 293 294
ATOM    294  C   SER A  38      -5.175  38.713  26.298  0.00  0.00    +0.264 C 
ATOM    295  N   ASP A  39      -3.834  38.764  26.349  0.00  0.00    -0.196 NA
ATOM    296  O   SER A  38      -5.834  39.370  25.486  0.00  0.00    -0.271 OA
BRANCH 295 297
ATOM    297  CA  ASP A  39      -3.047  39.601  25.420  0.00  0.00    +0.184 C 
BRANCH 297 298
ATOM    298  C   ASP A  39      -3.274  39.191  23.950  0.00  0.00    +0.262 C 
ATOM    299  N   ALA A  40      -3.242  37.863  23.665  0.00  0.00    -0.196 NA
ATOM    300  O   ASP A  39      -3.547  40.052  23.108  0.00  0.00    -0.271 OA
BRANCH 299 301
ATOM    301  CA  ALA A  40      -3.469  37.345  22.305  0.00  0.00    +0.173 C 
ATOM    302  CB  ALA A  40      -3.283  35.839  22.268  0.00  0.00    +0.033 C 
BRANCH 301 303
ATOM    303  C   ALA A  40      -4.873  37.699  21.818  0.00  0.00    +0.262 C 
ATOM    304  N   LEU A  41      -5.856  37.605  22.716  0.00  0.00    -0.196 NA
ATOM    305  O   ALA A  40      -5.056  38.048  20.644  0.00  0.00    -0.271 OA
BRANCH 304 306
ATOM    306  CA  LEU A  41      -7.255  37.927  22.396  0.00  0.00    +0.173 C 
BRANCH 306 307
ATOM    307  C   LEU A  41      -7.418  39.437  22.145  0.00  0.00    +0.262 C 
ATOM    308  N   ASP A  42      -6.776  40.281  22.980  0.00  0.00    -0.196 NA
ATOM    309  O   LEU A  41      -8.069  39.827  21.170  0.00  0.00    -0.271 OA
BRANCH 308 310
ATOM    310  CA  ASP A  42      -6.767  41.744  22.758  0.00  0.00    +0.184 C 
BRANCH 310 311
ATOM    311  C   ASP A  42      -6.235  42.066  21.349  0.00  0.00    +0.262 C 
ATOM    312  N   LYS A  43      -5.144  41.388  20.933  0.00  0.00    -0.196 NA
ATOM    313  O   ASP A  42      -6.856  42.847  20.628  0.00  0.00    -0.271 OA
BRANCH 312 314
ATOM    314  CA  LYS A  43      -4.513  41.641  19.634  0.00  0.00    +0.173 C 
BRANCH 314 315
ATOM    315  C   LYS A  43      -5.436  41.331  18.452  0.00  0.00    +0.262 C 
ATOM    316  N   ILE A  44      -6.057  40.136  18.446  0.00  0.00    -0.196 NA
ATOM    317  O   LYS A  43      -5.612  42.186  17.577  0.00  0.00    -0.271 OA
BRANCH 316 318
ATOM    318  CA  ILE A  44      -6.970  39.783  17.342  0.00  0.00    +0.173 C 
BRANCH 318 319
ATOM    319  C   ILE A  44      -8.196  40.691  17.368  0.00  0.00    +0.262 C 
ATOM    320  N   ARG A  45      -8.736  40.969  18.574  0.00  0.00    -0.196 NA
ATOM    321  O   ILE A  44      -8.649  41.121  16.307  0.00  0.00    -0.271 OA
BRANCH 320 322
ATOM    322  CA  ARG A  45      -9.892  41.871  18.704  0.00  0.00    +0.173 C 
BRANCH 322 323
ATOM    323  C   ARG A  45      -9.553  43.248  18.071  0.00  0.00    +0.262 C 
ATOM    324  N   TYR A  46      -8.415  43.830  18.443  0.00  0.00    -0.196 NA
ATOM    325  O   ARG A  45     -10.268  43.704  17.187  0.00  0.00    -0.271 OA
BRANCH 324 326
ATOM    326  CA  TYR A  46      -7.955  45.111  17.901  0.00  0.00    +0.177 C 
BRANCH 326 327
ATOM    327  C   TYR A  46      -7.759  45.062  16.363  0.00  0.00    +0.262 C 
ATOM    328  N   GLU A  47      -7.057  44.026  15.849  0.00  0.00    -0.196 NA
ATOM    329  O   TYR A  46      -8.275  45.935  15.654  0.00  0.00    -0.271 OA
BRANCH 328 330
ATOM    330  CA  GLU A  47      -6.799  43.914  14.405  0.00  0.00    +0.173 C 
BRANCH 330 331
ATOM    331  C   GLU A  47      -8.093  43.761  13.608  0.00  0.00    +0.262 C 
ATOM    332  N   SER A  48      -9.074  43.039  14.175  0.00  0.00    -0.194 NA
ATOM    333  O   GLU A  47      -8.210  44.337  12.530  0.00  0.00    -0.271 OA
BRANCH 332 334
ATOM    334  CA  SER A  48     -10.364  42.806  13.529  0.00  0.00    +0.205 C 
BRANCH 334 335
ATOM    335  C   SER A  48     -11.164  44.117  13.346  0.00  0.00    +0.264 C 
ATOM    336  N   LEU A  49     -10.868  45.166  14.163  0.00  0.00    -0.196 NA
ATOM    337  O   SER A  48     -12.061  44.159  12.489  0.00  0.00    -0.271 OA
BRANCH 336 338
ATOM    338  CA  LEU A  49     -11.567  46.472  14.056  0.00  0.00    +0.173 C 
BRANCH 338 339
ATOM    339  C   LEU A  49     -11.359  47.155  12.701  0.00  0.00    +0.262 C 
ATOM    340  O   LEU A  49     -12.258  47.845  12.227  0.00  0.00    -0.271 OA
ATOM    341  N   THR A  50     -10.189  46.948  12.079  0.00  0.00    -0.194 NA
BRANCH 341 342
ATOM    342  CA  THR A  50      -9.854  47.539  10.778  0.00  0.00    +0.203 C 
BRANCH 342 343
ATOM    343  C   THR A  50      -9.917  46.507   9.651  0.00  0.00    +0.264 C 
ATOM    344  N   ASP A  51      -9.846  45.197   9.992  0.00  0.00    -0.196 NA
ATOM    345  O   THR A  50     -10.014  46.896   8.487  0.00  0.00    -0.271 OA
BRANCH 344 346
ATOM    346  CA  ASP A  51      -9.941  44.108   9.023  0.00  0.00    +0.183 C 
BRANCH 346 347
ATOM    347  C   ASP A  51     -10.809  42.984   9.607  0.00  0.00    +0.246 C 
ATOM    348  O   ASP A  51     -10.276  42.026  10.182  0.00  0.00    -0.273 OA
ATOM    349  N   PRO A  52     -12.152  43.070   9.442  0.00  0.00    -0.272 N 
ATOM    350  CA  PRO A  52     -13.034  42.034  10.007  0.00  0.00    +0.154 C 
ATOM    351  CB  PRO A  52     -14.449  42.563   9.717  0.00  0.00    +0.031 C 
ATOM    352  CG  PRO A  52     -14.279  44.017   9.482  0.00  0.00    +0.024 C 
ATOM    353  CD  PRO A  52     -12.946  44.143   8.804  0.00  0.00    +0.094 C 
BRANCH 350 354
ATOM    354  C   PRO A  52     -12.815  40.626   9.458  0.00  0.00    +0.260 C 
ATOM    355  O   PRO A  52     -13.243  39.674  10.107  0.00  0.00    -0.272 OA
ATOM    356  N   SER A  53     -12.122  40.490   8.303  0.00  0.00    -0.194 NA
BRANCH 356 357
ATOM    357  CA  SER A  53     -11.824  39.193   7.678  0.00  0.00    +0.205 C 
BRANCH 357 358
ATOM    358  C   SER A  53     -10.841  38.354   8.528  0.00  0.00    +0.264 C 
ATOM    359  N   LYS A  54     -10.125  39.013   9.467  0.00  0.00    -0.196 NA
ATOM    360  O   SER A  53     -10.767  37.136   8.360  0.00  0.00    -0.271 OA
BRANCH 359 361
ATOM    361  CA  LYS A  54      -9.204  38.341  10.395  0.00  0.00    +0.173 C 
BRANCH 361 362
ATOM    362  C   LYS A  54      -9.980  37.389  11.330  0.00  0.00    +0.262 C 
ATOM    363  O   LYS A  54      -9.401  36.440  11.862  0.00  0.00    -0.271 OA
ATOM    364  N   LEU A  55     -11.315  37.614  11.471  0.00  0.00    -0.196 NA
BRANCH 364 365
ATOM    365  CA  LEU A  55     -12.196  36.763  12.265  0.00  0.00    +0.173 C 
BRANCH 365 366
ATOM    366  C   LEU A  55     -12.856  35.608  11.457  0.00  0.00    +0.262 C 
ATOM    367  O   LEU A  55     -13.650  34.857  12.028  0.00  0.00    -0.271 OA
ATOM    368  N   ASP A  56     -12.496  35.447  10.160  0.00  0.00    -0.196 NA
BRANCH 368 369
ATOM    369  CA  ASP A  56     -13.010  34.359   9.298  0.00  0.00    +0.184 C 
BRANCH 369 370
ATOM    370  C   ASP A  56     -12.611  32.991   9.864  0.00  0.00    +0.262 C 
ATOM    371  N   UNK A  57     -11.460  32.945  10.564  0.00  0.00    -0.194 NA
ATOM    372  O   ASP A  56     -13.358  32.023   9.737  0.00  0.00    -0.271 OA
BRANCH 371 373
ATOM    373  C   UNK A  57     -10.939  31.750  11.239  0.00  0.00    +0.205 C 
BRANCH 373 374
ATOM    374  C   UNK A  57     -11.606  31.513  12.619  0.00  0.00    +0.264 C 
ATOM    375  O   UNK A  57     -11.184  30.620  13.359  0.00  0.00    -0.271 OA
ATOM    376  N   UNK A  57     -12.627  32.305  12.955  0.00  0.00    -0.194 NA
BRANCH 376 377
ATOM    377  C   UNK A  57     -13.344  32.179  14.219  0.00  0.00    +0.201 C 
BRANCH 377 378
ATOM    378  C   UNK A  57     -13.659  33.515  14.871  0.00  0.00    +0.264 C 
ATOM    379  O   UNK A  57     -12.749  34.324  15.126  0.00  0.00    -0.271 OA
ATOM    380  N   UNK A  57     -14.960  33.764  15.120  0.00  0.00    -0.196 NA
BRANCH 380 381
ATOM    381  C   UNK A  57     -15.436  35.013  15.728  0.00  0.00    +0.173 C 
BRANCH 381 382
ATOM    382  C   UNK A  57     -15.427  34.998  17.260  0.00  0.00    +0.262 C 
ATOM    383  N   UNK A  57     -15.595  33.814  17.890  0.00  0.00    -0.196 NA
ATOM    384  O   UNK A  57     -15.304  36.062  17.860  0.00  0.00    -0.271 OA
BRANCH 383 385
ATOM    385  C   UNK A  57     -15.637  33.717  19.348  0.00  0.00    +0.173 C 
BRANCH 385 386
ATOM    386  C   UNK A  57     -14.278  33.990  19.965  0.00  0.00    +0.262 C 
ATOM    387  N   UNK A  57     -14.243  34.913  20.927  0.00  0.00    -0.196 NA
ATOM    388  O   UNK A  57     -13.283  33.400  19.547  0.00  0.00    -0.271 OA
BRANCH 387 389
ATOM    389  C   UNK A  57     -13.006  35.299  21.619  0.00  0.00    +0.173 C 
BRANCH 389 390
ATOM    390  C   UNK A  57     -13.124  34.838  23.063  0.00  0.00    +0.262 C 
ATOM    391  O   UNK A  57     -13.905  35.397  23.844  0.00  0.00    -0.271 OA
ATOM    392  N   UNK A  57     -12.422  33.744  23.400  0.00  0.00    -0.196 NA
BRANCH 392 393
ATOM    393  C   UNK A  57     -12.568  33.174  24.741  0.00  0.00    +0.179 C 
BRANCH 393 394
ATOM    394  C   UNK A  57     -11.368  32.346  25.176  0.00  0.00    +0.262 C 
ATOM    395  N   UNK A  57     -11.420  31.909  26.435  0.00  0.00    -0.196 NA
ATOM    396  O   UNK A  57     -10.460  32.083  24.385  0.00  0.00    -0.271 OA
BRANCH 395 397
ATOM    397  C   UNK A  57     -10.411  31.062  27.062  0.00  0.00    +0.173 C 
BRANCH 397 398
ATOM    398  C   UNK A  57     -11.115  29.838  27.663  0.00  0.00    +0.262 C 
ATOM    399  O   UNK A  57     -12.116  29.992  28.366  0.00  0.00    -0.271 OA
ATOM    400  N   UNK A  57     -10.585  28.637  27.394  0.00  0.00    -0.196 NA
BRANCH 400 401
ATOM    401  C   UNK A  57     -11.099  27.389  27.972  0.00  0.00    +0.182 C 
BRANCH 401 402
ATOM    402  C   UNK A  57     -10.016  26.751  28.839  0.00  0.00    +0.262 C 
ATOM    403  N   UNK A  57     -10.399  26.274  30.020  0.00  0.00    -0.196 NA
ATOM    404  O   UNK A  57      -8.862  26.691  28.417  0.00  0.00    -0.271 OA
BRANCH 403 405
ATOM    405  C   UNK A  57      -9.507  25.572  30.955  0.00  0.00    +0.173 C 
BRANCH 405 406
ATOM    406  C   UNK A  57      -9.979  24.133  30.983  0.00  0.00    +0.262 C 
ATOM    407  O   UNK A  57     -11.144  23.865  31.280  0.00  0.00    -0.271 OA
ATOM    408  N   UNK A  57      -9.091  23.224  30.611  0.00  0.00    -0.196 NA
BRANCH 408 409
ATOM    409  C   UNK A  57      -9.427  21.820  30.450  0.00  0.00    +0.171 C 
BRANCH 409 410
ATOM    410  C   UNK A  57      -8.498  20.894  31.267  0.00  0.00    +0.246 C 
ATOM    411  N   UNK A  57      -8.872  20.587  32.530  0.00  0.00    -0.272 N 
ATOM    412  C   UNK A  57      -8.097  19.597  33.305  0.00  0.00    +0.154 C 
ATOM    413  C   UNK A  57      -8.605  19.786  34.735  0.00  0.00    +0.031 C 
ATOM    414  C   UNK A  57     -10.001  20.300  34.576  0.00  0.00    +0.024 C 
ATOM    415  C   UNK A  57     -10.033  21.093  33.294  0.00  0.00    +0.094 C 
ATOM    416  O   UNK A  57      -7.468  20.453  30.751  0.00  0.00    -0.273 OA
BRANCH 412 417
ATOM    417  C   UNK A  57      -8.413  18.181  32.809  0.00  0.00    +0.260 C 
ATOM    418  N   UNK A  57      -7.415  17.303  32.854  0.00  0.00    -0.196 NA
ATOM    419  O   UNK A  57      -9.553  17.885  32.406  0.00  0.00    -0.272 OA
BRANCH 418 420
ATOM    420  C   UNK A  57      -7.560  15.910  32.432  0.00  0.00    +0.182 C 
BRANCH 420 421
ATOM    421  C   UNK A  57      -6.771  15.027  33.408  0.00  0.00    +0.262 C 
ATOM    422  N   UNK A  57      -7.474  14.500  34.430  0.00  0.00    -0.204 NA
ATOM    423  O   UNK A  57      -5.558  14.843  33.250  0.00  0.00    -0.271 OA
BRANCH 422 424
ATOM    424  C   UNK A  57      -6.859  13.666  35.472  0.00  0.00    +0.115 C 
BRANCH 424 425
ATOM    425  C   UNK A  57      -7.859  13.306  36.581  0.00  0.00    +0.023 C 
BRANCH 425 426
ATOM    426  C   UNK A  57      -8.129  14.430  37.557  0.00  0.00    +0.003 C 
BRANCH 426 427
ATOM    427  C   UNK A  57      -9.142  13.990  38.601  0.00  0.00    +0.021 C 
BRANCH 427 428
ATOM    428  C   UNK A  57      -9.305  14.970  39.732  0.00  0.00    +0.109 C 
ATOM    429  N   UNK A  57     -10.159  16.123  39.349  0.00  0.00    -0.131 NA
ENDBRANCH 427 428
ENDBRANCH 426 427
ENDBRANCH 425 426
ENDBRANCH 424 425
ENDBRANCH 422 424
ENDBRANCH 420 421
BRANCH 420 430
ATOM    430  C   UNK A  57      -7.109  15.719  30.974  0.00  0.00    +0.120 C 
BRANCH 430 431
ATOM    431  C   UNK A  57      -7.371  14.329  30.418  0.00  0.00    +0.263 C 
ATOM    432  O   UNK A  57      -7.242  13.312  31.106  0.00  0.00    -0.272 OA
ATOM    433  N   UNK A  57      -7.714  14.253  29.146  0.00  0.00    -0.088 NA
ENDBRANCH 430 431
ENDBRANCH 420 430
ENDBRANCH 418 420
ENDBRANCH 412 417
ENDBRANCH 409 410
BRANCH 409 434
ATOM    434  C   UNK A  57      -9.510  21.395  28.940  0.00  0.00    +0.029 C 
ATOM    435  C   UNK A  57      -9.989  19.926  28.787  0.00  0.00    +0.002 C 
BRANCH 434 436
ATOM    436  C   UNK A  57     -10.423  22.352  28.109  0.00  0.00    +0.002 C 
ATOM    437  C   UNK A  57     -10.145  22.371  26.594  0.00  0.00    +0.000 C 
ENDBRANCH 434 436
ENDBRANCH 409 434
ENDBRANCH 408 409
ENDBRANCH 405 406
BRANCH 405 438
ATOM    438  C   UNK A  57      -9.554  26.191  32.356  0.00  0.00    +0.031 C 
BRANCH 438 439
ATOM    439  C   UNK A  57      -9.326  27.710  32.414  0.00  0.00    +0.002 C 
ATOM    440  C   UNK A  57      -9.372  28.204  33.850  0.00  0.00    +0.000 C 
ATOM    441  C   UNK A  57      -8.016  28.100  31.708  0.00  0.00    +0.000 C 
ENDBRANCH 438 439
ENDBRANCH 405 438
ENDBRANCH 403 405
ENDBRANCH 401 402
BRANCH 401 442
ATOM    442  C   UNK A  57     -11.530  26.405  26.903  0.00  0.00    +0.120 C 
BRANCH 442 443
ATOM    443  C   UNK A  57     -12.702  26.867  26.065  0.00  0.00    +0.263 C 
ATOM    444  N   UNK A  57     -13.542  27.734  26.610  0.00  0.00    -0.088 NA
ATOM    445  O   UNK A  57     -12.862  26.443  24.918  0.00  0.00    -0.272 OA
ENDBRANCH 442 443
ENDBRANCH 401 442
ENDBRANCH 400 401
ENDBRANCH 397 398
BRANCH 397 446
ATOM    446  C   UNK A  57      -9.590  31.829  28.144  0.00  0.00    +0.029 C 
ATOM    447  C   UNK A  57      -8.496  30.907  28.724  0.00  0.00    +0.002 C 
BRANCH 446 448
ATOM    448  C   UNK A  57      -8.984  33.144  27.581  0.00  0.00    +0.002 C 
ATOM    449  C   UNK A  57      -8.389  34.109  28.632  0.00  0.00    +0.000 C 
ENDBRANCH 446 448
ENDBRANCH 397 446
ENDBRANCH 395 397
ENDBRANCH 393 394
BRANCH 393 450
ATOM    450  C   UNK A  57     -13.854  32.290  24.817  0.00  0.00    +0.079 C 
BRANCH 450 451
ATOM    451  C   UNK A  57     -13.905  31.171  23.811  0.00  0.00    +0.082 A 
ATOM    452  N   UNK A  57     -12.875  30.252  23.680  0.00  0.00    -0.227 NA
ATOM    453  C   UNK A  57     -13.247  29.427  22.714  0.00  0.00    +0.199 A 
ATOM    454  N   UNK A  57     -14.435  29.762  22.221  0.00  0.00    -0.221 NA
ATOM    455  C   UNK A  57     -14.870  30.860  22.915  0.00  0.00    +0.115 A 
ENDBRANCH 450 451
ENDBRANCH 393 450
ENDBRANCH 392 393
ENDBRANCH 389 390
BRANCH 389 456
ATOM    456  C   UNK A  57     -12.798  36.823  21.524  0.00  0.00    +0.031 C 
BRANCH 456 457
ATOM    457  C   UNK A  57     -12.658  37.403  20.102  0.00  0.00    +0.002 C 
ATOM    458  C   UNK A  57     -12.472  38.921  20.159  0.00  0.00    +0.000 C 
ATOM    459  C   UNK A  57     -11.548  36.683  19.295  0.00  0.00    +0.000 C 
ENDBRANCH 456 457
ENDBRANCH 389 456
ENDBRANCH 387 389
ENDBRANCH 385 386
BRANCH 385 460
ATOM    460  C   UNK A  57     -16.215  32.367  19.828  0.00  0.00    +0.043 C 
BRANCH 460 461
ATOM    461  C   UNK A  57     -17.687  32.158  19.475  0.00  0.00    +0.116 C 
BRANCH 461 462
ATOM    462  C   UNK A  57     -18.677  33.201  19.973  0.00  0.00    +0.365 C 
ATOM    463  O   UNK A  57     -18.605  33.582  21.164  0.00  0.00    -0.246 OA
ATOM    464  O   UNK A  57     -19.538  33.626  19.168  0.00  0.00    -0.246 OA
ENDBRANCH 461 462
ENDBRANCH 460 461
ENDBRANCH 385 460
ENDBRANCH 383 385
ENDBRANCH 381 382
BRANCH 381 465
ATOM    465  C   UNK A  57     -16.840  35.393  15.217  0.00  0.00    +0.031 C 
BRANCH 465 466
ATOM    466  C   UNK A  57     -16.838  36.027  13.832  0.00  0.00    +0.004 C 
BRANCH 466 467
ATOM    467  C   UNK A  57     -18.247  36.419  13.399  0.00  0.00    +0.021 C 
BRANCH 467 468
ATOM    468  C   UNK A  57     -18.292  36.933  11.981  0.00  0.00    +0.109 C 
ATOM    469  N   UNK A  57     -19.680  37.279  11.568  0.00  0.00    -0.131 NA
ENDBRANCH 467 468
ENDBRANCH 466 467
ENDBRANCH 465 466
ENDBRANCH 381 465
ENDBRANCH 380 381
ENDBRANCH 377 378
ENDBRANCH 376 377
ENDBRANCH 373 374
BRANCH 373 470
ATOM    470  C   UNK A  57      -9.426  31.879  11.402  0.00  0.00    +0.213 C 
ATOM    471  O   UNK A  57      -9.098  33.173  11.888  0.00  0.00    -0.218 OA
ENDBRANCH 373 470
ENDBRANCH 371 373
ENDBRANCH 369 370
BRANCH 369 472
ATOM    472  CB  ASP A  56     -12.522  34.517   7.846  0.00  0.00    +0.145 C 
BRANCH 472 473
ATOM    473  CG  ASP A  56     -13.184  35.658   7.073  0.00  0.00    +0.367 C 
ATOM    474  OD2 ASP A  56     -14.200  36.211   7.571  0.00  0.00    -0.246 OA
ATOM    475  OD1 ASP A  56     -12.685  35.998   5.978  0.00  0.00    -0.246 OA
ENDBRANCH 472 473
ENDBRANCH 369 472
ENDBRANCH 368 369
ENDBRANCH 365 366
BRANCH 365 476
ATOM    476  CB  LEU A  55     -13.255  37.596  13.013  0.00  0.00    +0.031 C 
BRANCH 476 477
ATOM    477  CG  LEU A  55     -12.731  38.549  14.108  0.00  0.00    +0.002 C 
ATOM    478  CD2 LEU A  55     -11.803  37.835  15.101  0.00  0.00    +0.000 C 
ATOM    479  CD1 LEU A  55     -13.888  39.248  14.832  0.00  0.00    +0.000 C 
ENDBRANCH 476 477
ENDBRANCH 365 476
ENDBRANCH 364 365
ENDBRANCH 361 362
BRANCH 361 480
ATOM    480  CB  LYS A  54      -8.362  39.369  11.164  0.00  0.00    +0.031 C 
BRANCH 480 481
ATOM    481  CG  LYS A  54      -7.426  40.125  10.227  0.00  0.00    +0.004 C 
BRANCH 481 482
ATOM    482  CD  LYS A  54      -6.328  40.880  10.931  0.00  0.00    +0.021 C 
BRANCH 482 483
ATOM    483  CE  LYS A  54      -5.338  41.407   9.928  0.00  0.00    +0.109 C 
ATOM    484  NZ  LYS A  54      -4.292  42.239  10.573  0.00  0.00    -0.131 NA
ENDBRANCH 482 483
ENDBRANCH 481 482
ENDBRANCH 480 481
ENDBRANCH 361 480
ENDBRANCH 359 361
ENDBRANCH 357 358
BRANCH 357 485
ATOM    485  CB  SER A  53     -11.312  39.368   6.251  0.00  0.00    +0.213 C 
ATOM    486  OG  SER A  53      -9.939  39.713   6.195  0.00  0.00    -0.218 OA
ENDBRANCH 357 485
ENDBRANCH 356 357
ENDBRANCH 350 354
ENDBRANCH 346 347
BRANCH 346 487
ATOM    487  CB  ASP A  51      -8.548  43.619   8.567  0.00  0.00    +0.145 C 
BRANCH 487 488
ATOM    488  CG  ASP A  51      -8.558  42.572   7.456  0.00  0.00    +0.367 C 
ATOM    489  OD2 ASP A  51      -7.465  42.076   7.096  0.00  0.00    -0.246 OA
ATOM    490  OD1 ASP A  51      -9.653  42.258   6.941  0.00  0.00    -0.246 OA
ENDBRANCH 487 488
ENDBRANCH 346 487
ENDBRANCH 344 346
ENDBRANCH 342 343
BRANCH 342 491
ATOM    491  CB  THR A  50      -8.507  48.247  10.831  0.00  0.00    +0.181 C 
ATOM    492  CG2 THR A  50      -8.526  49.496  11.717  0.00  0.00    +0.038 C 
ATOM    493  OG1 THR A  50      -7.547  47.310  11.292  0.00  0.00    -0.221 OA
ENDBRANCH 342 491
ENDBRANCH 341 342
ENDBRANCH 338 339
BRANCH 338 494
ATOM    494  CB  LEU A  49     -11.199  47.440  15.195  0.00  0.00    +0.031 C 
BRANCH 494 495
ATOM    495  CG  LEU A  49     -11.651  47.034  16.610  0.00  0.00    +0.002 C 
ATOM    496  CD2 LEU A  49     -11.135  48.018  17.638  0.00  0.00    +0.000 C 
ATOM    497  CD1 LEU A  49     -13.169  46.880  16.704  0.00  0.00    +0.000 C 
ENDBRANCH 494 495
ENDBRANCH 338 494
ENDBRANCH 336 338
ENDBRANCH 334 335
BRANCH 334 498
ATOM    498  CB  SER A  48     -11.177  41.774  14.304  0.00  0.00    +0.213 C 
ATOM    499  OG  SER A  48     -11.780  42.314  15.470  0.00  0.00    -0.218 OA
ENDBRANCH 334 498
ENDBRANCH 332 334
ENDBRANCH 330 331
BRANCH 330 500
ATOM    500  CB  GLU A  47      -5.850  42.768  14.105  0.00  0.00    +0.043 C 
BRANCH 500 501
ATOM    501  CG  GLU A  47      -4.451  43.084  14.595  0.00  0.00    +0.116 C 
BRANCH 501 502
ATOM    502  CD  GLU A  47      -3.350  42.180  14.093  0.00  0.00    +0.365 C 
ATOM    503  OE2 GLU A  47      -2.216  42.317  14.603  0.00  0.00    -0.246 OA
ATOM    504  OE1 GLU A  47      -3.620  41.317  13.227  0.00  0.00    -0.246 OA
ENDBRANCH 501 502
ENDBRANCH 500 501
ENDBRANCH 330 500
ENDBRANCH 328 330
ENDBRANCH 326 327
BRANCH 326 505
ATOM    505  CB  TYR A  46      -6.669  45.572  18.601  0.00  0.00    +0.057 C 
BRANCH 505 506
ATOM    506  CG  TYR A  46      -6.053  46.812  17.984  0.00  0.00    -0.020 A 
ATOM    507  CD2 TYR A  46      -6.561  48.079  18.258  0.00  0.00    -0.001 A 
ATOM    508  CE2 TYR A  46      -6.006  49.222  17.680  0.00  0.00    +0.042 A 
ATOM    509  CZ  TYR A  46      -4.932  49.100  16.810  0.00  0.00    +0.196 A 
ATOM    510  CE1 TYR A  46      -4.406  47.848  16.527  0.00  0.00    +0.042 A 
ATOM    511  OH  TYR A  46      -4.328  50.205  16.257  0.00  0.00    -0.287 OA
ATOM    512  CD1 TYR A  46      -4.973  46.715  17.107  0.00  0.00    -0.001 A 
ENDBRANCH 505 506
ENDBRANCH 326 505
ENDBRANCH 324 326
ENDBRANCH 322 323
BRANCH 322 513
ATOM    513  CB  ARG A  45     -10.333  41.996  20.165  0.00  0.00    +0.035 C 
BRANCH 513 514
ATOM    514  CG  ARG A  45     -11.617  42.804  20.360  0.00  0.00    +0.049 C 
BRANCH 514 515
ATOM    515  CD  ARG A  45     -12.046  42.845  21.821  0.00  0.00    +0.220 C 
BRANCH 515 516
ATOM    516  NE  ARG A  45     -11.006  43.396  22.697  0.00  0.00    -0.087 NA
ATOM    517  CZ  ARG A  45     -11.236  43.984  23.865  0.00  0.00    +0.535 C 
ATOM    518  NH2 ARG A  45     -10.226  44.438  24.594  0.00  0.00    +0.135 NA
ATOM    519  NH1 ARG A  45     -12.478  44.125  24.313  0.00  0.00    +0.135 NA
ENDBRANCH 515 516
ENDBRANCH 514 515
ENDBRANCH 513 514
ENDBRANCH 322 513
ENDBRANCH 320 322
ENDBRANCH 318 319
BRANCH 318 520
ATOM    520  CB  ILE A  44      -7.331  38.274  17.291  0.00  0.00    +0.029 C 
ATOM    521  CG2 ILE A  44      -8.084  37.829  18.537  0.00  0.00    +0.002 C 
BRANCH 520 522
ATOM    522  CG1 ILE A  44      -8.075  37.903  15.952  0.00  0.00    +0.002 C 
ATOM    523  CD1 ILE A  44      -7.268  38.083  14.679  0.00  0.00    +0.000 C 
ENDBRANCH 520 522
ENDBRANCH 318 520
ENDBRANCH 316 318
ENDBRANCH 314 315
BRANCH 314 524
ATOM    524  CB  LYS A  43      -3.168  40.926  19.510  0.00  0.00    +0.031 C 
BRANCH 524 525
ATOM    525  CG  LYS A  43      -2.315  41.528  18.407  0.00  0.00    +0.004 C 
BRANCH 525 526
ATOM    526  CD  LYS A  43      -0.883  41.052  18.490  0.00  0.00    +0.021 C 
BRANCH 526 527
ATOM    527  CE  LYS A  43      -0.095  41.547  17.314  0.00  0.00    +0.109 C 
ATOM    528  NZ  LYS A  43       1.350  41.328  17.527  0.00  0.00    -0.131 NA
ENDBRANCH 526 527
ENDBRANCH 525 526
ENDBRANCH 524 525
ENDBRANCH 314 524
ENDBRANCH 312 314
ENDBRANCH 310 311
BRANCH 310 529
ATOM    529  CB  ASP A  42      -5.856  42.427  23.789  0.00  0.00    +0.145 C 
BRANCH 529 530
ATOM    530  CG  ASP A  42      -6.458  42.560  25.170  0.00  0.00    +0.367 C 
ATOM    531  OD2 ASP A  42      -5.718  42.916  26.092  0.00  0.00    -0.246 OA
ATOM    532  OD1 ASP A  42      -7.680  42.323  25.317  0.00  0.00    -0.246 OA
ENDBRANCH 529 530
ENDBRANCH 310 529
ENDBRANCH 308 310
ENDBRANCH 306 307
BRANCH 306 533
ATOM    533  CB  LEU A  41      -8.156  37.436  23.505  0.00  0.00    +0.031 C 
BRANCH 533 534
ATOM    534  CG  LEU A  41      -8.338  35.895  23.533  0.00  0.00    +0.002 C 
ATOM    535  CD2 LEU A  41      -8.819  35.440  24.893  0.00  0.00    +0.000 C 
ATOM    536  CD1 LEU A  41      -9.302  35.417  22.428  0.00  0.00    +0.000 C 
ENDBRANCH 533 534
ENDBRANCH 306 533
ENDBRANCH 304 306
ENDBRANCH 301 303
ENDBRANCH 299 301
ENDBRANCH 297 298
BRANCH 297 537
ATOM    537  CB  ASP A  39      -1.565  39.543  25.760  0.00  0.00    +0.145 C 
BRANCH 537 538
ATOM    538  CG  ASP A  39      -1.237  40.250  27.070  0.00  0.00    +0.367 C 
ATOM    539  OD2 ASP A  39      -2.156  40.904  27.653  0.00  0.00    -0.246 OA
ATOM    540  OD1 ASP A  39      -0.102  40.093  27.551  0.00  0.00    -0.246 OA
ENDBRANCH 537 538
ENDBRANCH 297 537
ENDBRANCH 295 297
ENDBRANCH 293 294
BRANCH 293 541
ATOM    541  CB  SER A  38      -5.994  38.335  28.659  0.00  0.00    +0.213 C 
ATOM    542  OG  SER A  38      -6.762  39.526  28.631  0.00  0.00    -0.218 OA
ENDBRANCH 293 541
ENDBRANCH 291 293
ENDBRANCH 289 290
BRANCH 289 543
ATOM    543  CB  SER A  37      -5.027  33.287  27.078  0.00  0.00    +0.213 C 
ATOM    544  OG  SER A  37      -4.440  31.986  27.044  0.00  0.00    -0.218 OA
ENDBRANCH 289 543
ENDBRANCH 287 289
ENDBRANCH 285 286
BRANCH 285 545
ATOM    545  CB  ASN A  36       0.119  34.606  27.922  0.00  0.00    +0.120 C 
BRANCH 545 546
ATOM    546  CG  ASN A  36       1.420  34.984  28.624  0.00  0.00    +0.263 C 
ATOM    547  OD1 ASN A  36       1.527  36.044  29.244  0.00  0.00    -0.272 OA
ATOM    548  ND2 ASN A  36       2.456  34.153  28.510  0.00  0.00    -0.088 NA
ENDBRANCH 545 546
ENDBRANCH 285 545
ENDBRANCH 283 285
ENDBRANCH 281 282
BRANCH 281 549
ATOM    549  CB  SER A  35      -1.854  37.461  32.134  0.00  0.00    +0.213 C 
ATOM    550  OG  SER A  35      -1.399  38.737  31.729  0.00  0.00    -0.218 OA
ENDBRANCH 281 549
ENDBRANCH 279 281
ENDBRANCH   1 278
BRANCH   1 551
ATOM    551  CB  ILE A  34      -5.473  33.273  32.513  0.00  0.00    +0.029 C 
ATOM    552  CG2 ILE A  34      -6.655  34.262  32.359  0.00  0.00    +0.002 C 
BRANCH 551 553
ATOM    553  CG1 ILE A  34      -5.959  31.818  32.723  0.00  0.00    +0.002 C 
ATOM    554  CD1 ILE A  34      -6.718  31.604  34.033  0.00  0.00    +0.000 C 
ENDBRANCH 551 553
ENDBRANCH   1 551
TORSDOF 270
REMARK  Name = /Users/mlugowska/PhD/ML_residence_time_prediction/protein_files/5NYH_protein.pdb
REMARK  779 active torsions:
REMARK  status: ('A' for Active; 'I' for Inactive)
REMARK    1  A    between atoms: _2  and  _3
REMARK    2  A    between atoms: _2  and  _5
REMARK    3  A    between atoms: _5  and  _6
REMARK    4  A    between atoms: _6  and  _7
REMARK    5  A    between atoms: _10  and  _11
REMARK    6  A    between atoms: _11  and  _12
REMARK    7  A    between atoms: _11  and  _14
REMARK    8  A    between atoms: _17  and  _18
REMARK    9  A    between atoms: _18  and  _19
REMARK   10  A    between atoms: _18  and  _21
REMARK   11  A    between atoms: _21  and  _22
REMARK   12  A    between atoms: _22  and  _23
REMARK   13  A    between atoms: _26  and  _27
REMARK   14  A    between atoms: _27  and  _28
REMARK   15  A    between atoms: _27  and  _30
REMARK   16  A    between atoms: _33  and  _34
REMARK   17  A    between atoms: _34  and  _35
REMARK   18  A    between atoms: _34  and  _37
REMARK   19  A    between atoms: _37  and  _38
REMARK   20  A    between atoms: _44  and  _45
REMARK   21  A    between atoms: _45  and  _46
REMARK   22  A    between atoms: _49  and  _50
REMARK   23  A    between atoms: _50  and  _51
REMARK   24  A    between atoms: _50  and  _53
REMARK   25  A    between atoms: _53  and  _54
REMARK   26  A    between atoms: _60  and  _61
REMARK   27  A    between atoms: _61  and  _62
REMARK   28  A    between atoms: _61  and  _64
REMARK   29  A    between atoms: _64  and  _65
REMARK   30  A    between atoms: _65  and  _66
REMARK   31  A    between atoms: _69  and  _70
REMARK   32  A    between atoms: _70  and  _71
REMARK   33  A    between atoms: _74  and  _75
REMARK   34  A    between atoms: _75  and  _76
REMARK   35  A    between atoms: _75  and  _78
REMARK   36  A    between atoms: _78  and  _79
REMARK   37  A    between atoms: _79  and  _80
REMARK   38  A    between atoms: _83  and  _84
REMARK   39  A    between atoms: _84  and  _85
REMARK   40  A    between atoms: _84  and  _87
REMARK   41  A    between atoms: _87  and  _88
REMARK   42  A    between atoms: _91  and  _92
REMARK   43  A    between atoms: _92  and  _93
REMARK   44  A    between atoms: _96  and  _97
REMARK   45  A    between atoms: _97  and  _98
REMARK   46  A    between atoms: _97  and  _100
REMARK   47  A    between atoms: _100  and  _101
REMARK   48  A    between atoms: _101  and  _102
REMARK   49  A    between atoms: _105  and  _106
REMARK   50  A    between atoms: _106  and  _107
REMARK   51  A    between atoms: _106  and  _109
REMARK   52  A    between atoms: _109  and  _110
REMARK   53  A    between atoms: _113  and  _114
REMARK   54  A    between atoms: _114  and  _115
REMARK   55  A    between atoms: _114  and  _117
REMARK   56  A    between atoms: _117  and  _118
REMARK   57  A    between atoms: _118  and  _119
REMARK   58  A    between atoms: _121  and  _122
REMARK   59  A    between atoms: _122  and  _123
REMARK   60  A    between atoms: _122  and  _125
REMARK   61  A    between atoms: _127  and  _128
REMARK   62  A    between atoms: _128  and  _129
REMARK   63  A    between atoms: _128  and  _131
REMARK   64  A    between atoms: _131  and  _132
REMARK   65  A    between atoms: _135  and  _136
REMARK   66  A    between atoms: _136  and  _137
REMARK   67  A    between atoms: _136  and  _139
REMARK   68  A    between atoms: _139  and  _140
REMARK   69  A    between atoms: _143  and  _144
REMARK   70  A    between atoms: _144  and  _145
REMARK   71  A    between atoms: _144  and  _147
REMARK   72  A    between atoms: _147  and  _148
REMARK   73  A    between atoms: _151  and  _152
REMARK   74  A    between atoms: _152  and  _153
REMARK   75  A    between atoms: _152  and  _155
REMARK   76  A    between atoms: _155  and  _156
REMARK   77  A    between atoms: _159  and  _160
REMARK   78  A    between atoms: _160  and  _161
REMARK   79  A    between atoms: _160  and  _163
REMARK   80  A    between atoms: _166  and  _167
REMARK   81  A    between atoms: _167  and  _168
REMARK   82  A    between atoms: _167  and  _170
REMARK   83  A    between atoms: _170  and  _171
REMARK   84  A    between atoms: _177  and  _178
REMARK   85  A    between atoms: _178  and  _179
REMARK   86  A    between atoms: _178  and  _181
REMARK   87  A    between atoms: _181  and  _182
REMARK   88  A    between atoms: _189  and  _190
REMARK   89  A    between atoms: _190  and  _191
REMARK   90  A    between atoms: _190  and  _193
REMARK   91  A    between atoms: _195  and  _196
REMARK   92  A    between atoms: _196  and  _197
REMARK   93  A    between atoms: _196  and  _199
REMARK   94  A    between atoms: _199  and  _200
REMARK   95  A    between atoms: _203  and  _204
REMARK   96  A    between atoms: _204  and  _205
REMARK   97  A    between atoms: _204  and  _207
REMARK   98  A    between atoms: _207  and  _208
REMARK   99  A    between atoms: _208  and  _209
REMARK  100  A    between atoms: _209  and  _210
REMARK  101  A    between atoms: _212  and  _213
REMARK  102  A    between atoms: _213  and  _214
REMARK  103  A    between atoms: _213  and  _216
REMARK  104  A    between atoms: _216  and  _217
REMARK  105  A    between atoms: _217  and  _218
REMARK  106  A    between atoms: _221  and  _222
REMARK  107  A    between atoms: _222  and  _223
REMARK  108  A    between atoms: _222  and  _225
REMARK  109  A    between atoms: _225  and  _226
REMARK  110  A    between atoms: _229  and  _230
REMARK  111  A    between atoms: _230  and  _231
REMARK  112  A    between atoms: _230  and  _233
REMARK  113  A    between atoms: _233  and  _234
REMARK  114  A    between atoms: _240  and  _241
REMARK  115  A    between atoms: _241  and  _242
REMARK  116  A    between atoms: _241  and  _244
REMARK  117  A    between atoms: _244  and  _245
REMARK  118  A    between atoms: _248  and  _249
REMARK  119  A    between atoms: _249  and  _250
REMARK  120  A    between atoms: _249  and  _252
REMARK  121  A    between atoms: _252  and  _253
REMARK  122  A    between atoms: _253  and  _254
REMARK  123  A    between atoms: _254  and  _255
REMARK  124  A    between atoms: _259  and  _260
REMARK  125  A    between atoms: _260  and  _261
REMARK  126  A    between atoms: _260  and  _263
REMARK  127  A    between atoms: _263  and  _264
REMARK  128  A    between atoms: _264  and  _265
REMARK  129  A    between atoms: _268  and  _269
REMARK  130  A    between atoms: _269  and  _270
REMARK  131  A    between atoms: _269  and  _272
REMARK  132  A    between atoms: _272  and  _273
REMARK  133  A    between atoms: _276  and  _277
REMARK  134  A    between atoms: _277  and  _278
REMARK  135  A    between atoms: _277  and  _280
REMARK  136  A    between atoms: _280  and  _281
REMARK  137  A    between atoms: _284  and  _285
REMARK  138  A    between atoms: _285  and  _286
REMARK  139  A    between atoms: _285  and  _288
REMARK  140  A    between atoms: _290  and  _291
REMARK  141  A    between atoms: _291  and  _292
REMARK  142  A    between atoms: _291  and  _294
REMARK  143  A    between atoms: _294  and  _295
REMARK  144  A    between atoms: _298  and  _299
REMARK  145  A    between atoms: _299  and  _300
REMARK  146  A    between atoms: _299  and  _302
REMARK  147  A    between atoms: _304  and  _305
REMARK  148  A    between atoms: _305  and  _306
REMARK  149  A    between atoms: _305  and  _308
REMARK  150  A    between atoms: _310  and  _311
REMARK  151  A    between atoms: _311  and  _312
REMARK  152  A    between atoms: _311  and  _314
REMARK  153  A    between atoms: _314  and  _315
REMARK  154  A    between atoms: _318  and  _319
REMARK  155  A    between atoms: _319  and  _320
REMARK  156  A    between atoms: _323  and  _324
REMARK  157  A    between atoms: _324  and  _325
REMARK  158  A    between atoms: _324  and  _327
REMARK  159  A    between atoms: _327  and  _328
REMARK  160  A    between atoms: _331  and  _332
REMARK  161  A    between atoms: _332  and  _333
REMARK  162  A    between atoms: _332  and  _335
REMARK  163  A    between atoms: _335  and  _336
REMARK  164  A    between atoms: _339  and  _340
REMARK  165  A    between atoms: _340  and  _341
REMARK  166  A    between atoms: _340  and  _343
REMARK  167  A    between atoms: _343  and  _344
REMARK  168  A    between atoms: _344  and  _345
REMARK  169  A    between atoms: _345  and  _346
REMARK  170  A    between atoms: _348  and  _349
REMARK  171  A    between atoms: _349  and  _350
REMARK  172  A    between atoms: _349  and  _352
REMARK  173  A    between atoms: _352  and  _353
REMARK  174  A    between atoms: _356  and  _357
REMARK  175  A    between atoms: _357  and  _358
REMARK  176  A    between atoms: _357  and  _360
REMARK  177  A    between atoms: _360  and  _361
REMARK  178  A    between atoms: _361  and  _362
REMARK  179  A    between atoms: _362  and  _363
REMARK  180  A    between atoms: _367  and  _368
REMARK  181  A    between atoms: _368  and  _369
REMARK  182  A    between atoms: _368  and  _371
REMARK  183  A    between atoms: _371  and  _372
REMARK  184  A    between atoms: _379  and  _380
REMARK  185  A    between atoms: _380  and  _381
REMARK  186  A    between atoms: _380  and  _383
REMARK  187  A    between atoms: _383  and  _384
REMARK  188  A    between atoms: _384  and  _385
REMARK  189  A    between atoms: _388  and  _389
REMARK  190  A    between atoms: _389  and  _390
REMARK  191  A    between atoms: _389  and  _392
REMARK  192  A    between atoms: _394  and  _395
REMARK  193  A    between atoms: _395  and  _396
REMARK  194  A    between atoms: _395  and  _398
REMARK  195  A    between atoms: _398  and  _399
REMARK  196  A    between atoms: _402  and  _403
REMARK  197  A    between atoms: _403  and  _404
REMARK  198  A    between atoms: _403  and  _406
REMARK  199  A    between atoms: _409  and  _410
REMARK  200  A    between atoms: _410  and  _411
REMARK  201  A    between atoms: _410  and  _413
REMARK  202  A    between atoms: _413  and  _414
REMARK  203  A    between atoms: _418  and  _419
REMARK  204  A    between atoms: _424  and  _425
REMARK  205  A    between atoms: _425  and  _426
REMARK  206  A    between atoms: _425  and  _428
REMARK  207  A    between atoms: _430  and  _431
REMARK  208  A    between atoms: _431  and  _432
REMARK  209  A    between atoms: _431  and  _434
REMARK  210  A    between atoms: _434  and  _435
REMARK  211  A    between atoms: _435  and  _436
REMARK  212  A    between atoms: _436  and  _437
REMARK  213  A    between atoms: _439  and  _440
REMARK  214  A    between atoms: _440  and  _441
REMARK  215  A    between atoms: _440  and  _443
REMARK  216  A    between atoms: _443  and  _444
REMARK  217  A    between atoms: _447  and  _448
REMARK  218  A    between atoms: _448  and  _449
REMARK  219  A    between atoms: _448  and  _451
REMARK  220  A    between atoms: _451  and  _452
REMARK  221  A    between atoms: _455  and  _456
REMARK  222  A    between atoms: _456  and  _457
REMARK  223  A    between atoms: _456  and  _459
REMARK  224  A    between atoms: _461  and  _462
REMARK  225  A    between atoms: _462  and  _463
REMARK  226  A    between atoms: _465  and  _466
REMARK  227  A    between atoms: _466  and  _467
REMARK  228  A    between atoms: _466  and  _469
REMARK  229  A    between atoms: _469  and  _470
REMARK  230  A    between atoms: _470  and  _471
REMARK  231  A    between atoms: _471  and  _472
REMARK  232  A    between atoms: _474  and  _475
REMARK  233  A    between atoms: _475  and  _476
REMARK  234  A    between atoms: _475  and  _478
REMARK  235  A    between atoms: _478  and  _479
REMARK  236  A    between atoms: _479  and  _480
REMARK  237  A    between atoms: _483  and  _484
REMARK  238  A    between atoms: _484  and  _485
REMARK  239  A    between atoms: _484  and  _487
REMARK  240  A    between atoms: _487  and  _488
REMARK  241  A    between atoms: _491  and  _492
REMARK  242  A    between atoms: _492  and  _493
REMARK  243  A    between atoms: _492  and  _495
REMARK  244  A    between atoms: _495  and  _496
REMARK  245  A    between atoms: _501  and  _502
REMARK  246  A    between atoms: _502  and  _503
REMARK  247  A    between atoms: _502  and  _505
REMARK  248  A    between atoms: _505  and  _506
REMARK  249  A    between atoms: _509  and  _510
REMARK  250  A    between atoms: _510  and  _511
REMARK  251  A    between atoms: _510  and  _513
REMARK  252  A    between atoms: _513  and  _514
REMARK  253  A    between atoms: _517  and  _518
REMARK  254  A    between atoms: _518  and  _519
REMARK  255  A    between atoms: _518  and  _521
REMARK  256  A    between atoms: _521  and  _522
REMARK  257  A    between atoms: _525  and  _526
REMARK  258  A    between atoms: _526  and  _527
REMARK  259  A    between atoms: _526  and  _529
REMARK  260  A    between atoms: _529  and  _530
REMARK  261  A    between atoms: _534  and  _535
REMARK  262  A    between atoms: _540  and  _541
REMARK  263  A    between atoms: _541  and  _542
REMARK  264  A    between atoms: _541  and  _544
REMARK  265  A    between atoms: _544  and  _545
REMARK  266  A    between atoms: _548  and  _549
REMARK  267  A    between atoms: _549  and  _552
REMARK  268  A    between atoms: _552  and  _553
REMARK  269  A    between atoms: _553  and  _554
REMARK  270  A    between atoms: _554  and  _555
REMARK  271  A    between atoms: _568  and  _569
REMARK  272  A    between atoms: _576  and  _577
REMARK  273  A    between atoms: _576  and  _579
REMARK  274  A    between atoms: _579  and  _580
REMARK  275  A    between atoms: _583  and  _584
REMARK  276  A    between atoms: _584  and  _585
REMARK  277  A    between atoms: _584  and  _587
REMARK  278  A    between atoms: _587  and  _588
REMARK  279  A    between atoms: _588  and  _589
REMARK  280  A    between atoms: _589  and  _590
REMARK  281  A    between atoms: _594  and  _595
REMARK  282  A    between atoms: _595  and  _596
REMARK  283  A    between atoms: _595  and  _598
REMARK  284  A    between atoms: _601  and  _602
REMARK  285  A    between atoms: _602  and  _603
REMARK  286  A    between atoms: _602  and  _605
REMARK  287  A    between atoms: _605  and  _606
REMARK  288  A    between atoms: _609  and  _610
REMARK  289  A    between atoms: _610  and  _611
REMARK  290  A    between atoms: _610  and  _613
REMARK  291  A    between atoms: _616  and  _617
REMARK  292  A    between atoms: _617  and  _618
REMARK  293  A    between atoms: _617  and  _620
REMARK  294  A    between atoms: _620  and  _621
REMARK  295  A    between atoms: _624  and  _625
REMARK  296  A    between atoms: _625  and  _626
REMARK  297  A    between atoms: _625  and  _628
REMARK  298  A    between atoms: _631  and  _632
REMARK  299  A    between atoms: _632  and  _633
REMARK  300  A    between atoms: _632  and  _635
REMARK  301  A    between atoms: _635  and  _636
REMARK  302  A    between atoms: _639  and  _640
REMARK  303  A    between atoms: _640  and  _641
REMARK  304  A    between atoms: _640  and  _643
REMARK  305  A    between atoms: _646  and  _647
REMARK  306  A    between atoms: _647  and  _648
REMARK  307  A    between atoms: _650  and  _651
REMARK  308  A    between atoms: _651  and  _652
REMARK  309  A    between atoms: _651  and  _654
REMARK  310  A    between atoms: _654  and  _655
REMARK  311  A    between atoms: _658  and  _659
REMARK  312  A    between atoms: _659  and  _660
REMARK  313  A    between atoms: _662  and  _663
REMARK  314  A    between atoms: _663  and  _664
REMARK  315  A    between atoms: _663  and  _666
REMARK  316  A    between atoms: _666  and  _667
REMARK  317  A    between atoms: _667  and  _668
REMARK  318  A    between atoms: _670  and  _671
REMARK  319  A    between atoms: _671  and  _672
REMARK  320  A    between atoms: _671  and  _674
REMARK  321  A    between atoms: _677  and  _678
REMARK  322  A    between atoms: _678  and  _679
REMARK  323  A    between atoms: _678  and  _681
REMARK  324  A    between atoms: _681  and  _682
REMARK  325  A    between atoms: _682  and  _683
REMARK  326  A    between atoms: _683  and  _684
REMARK  327  A    between atoms: _686  and  _687
REMARK  328  A    between atoms: _687  and  _688
REMARK  329  A    between atoms: _691  and  _692
REMARK  330  A    between atoms: _692  and  _693
REMARK  331  A    between atoms: _692  and  _695
REMARK  332  A    between atoms: _695  and  _696
REMARK  333  A    between atoms: _699  and  _700
REMARK  334  A    between atoms: _700  and  _701
REMARK  335  A    between atoms: _700  and  _703
REMARK  336  A    between atoms: _703  and  _704
REMARK  337  A    between atoms: _707  and  _708
REMARK  338  A    between atoms: _708  and  _709
REMARK  339  A    between atoms: _708  and  _711
REMARK  340  A    between atoms: _711  and  _712
REMARK  341  A    between atoms: _715  and  _716
REMARK  342  A    between atoms: _716  and  _717
REMARK  343  A    between atoms: _716  and  _719
REMARK  344  A    between atoms: _719  and  _720
REMARK  345  A    between atoms: _723  and  _724
REMARK  346  A    between atoms: _724  and  _725
REMARK  347  A    between atoms: _724  and  _727
REMARK  348  A    between atoms: _727  and  _728
REMARK  349  A    between atoms: _731  and  _732
REMARK  350  A    between atoms: _732  and  _733
REMARK  351  A    between atoms: _732  and  _735
REMARK  352  A    between atoms: _735  and  _736
REMARK  353  A    between atoms: _739  and  _740
REMARK  354  A    between atoms: _740  and  _741
REMARK  355  A    between atoms: _743  and  _744
REMARK  356  A    between atoms: _744  and  _745
REMARK  357  A    between atoms: _744  and  _747
REMARK  358  A    between atoms: _750  and  _751
REMARK  359  A    between atoms: _751  and  _752
REMARK  360  A    between atoms: _751  and  _754
REMARK  361  A    between atoms: _754  and  _755
REMARK  362  A    between atoms: _758  and  _759
REMARK  363  A    between atoms: _759  and  _760
REMARK  364  A    between atoms: _763  and  _764
REMARK  365  A    between atoms: _764  and  _765
REMARK  366  A    between atoms: _764  and  _767
REMARK  367  A    between atoms: _767  and  _768
REMARK  368  A    between atoms: _768  and  _769
REMARK  369  A    between atoms: _769  and  _770
REMARK  370  A    between atoms: _772  and  _773
REMARK  371  A    between atoms: _773  and  _774
REMARK  372  A    between atoms: _773  and  _776
REMARK  373  A    between atoms: _778  and  _779
REMARK  374  A    between atoms: _779  and  _780
REMARK  375  A    between atoms: _782  and  _783
REMARK  376  A    between atoms: _783  and  _784
REMARK  377  A    between atoms: _783  and  _786
REMARK  378  A    between atoms: _789  and  _790
REMARK  379  A    between atoms: _790  and  _791
REMARK  380  A    between atoms: _790  and  _793
REMARK  381  A    between atoms: _793  and  _794
REMARK  382  A    between atoms: _794  and  _795
REMARK  383  A    between atoms: _795  and  _796
REMARK  384  A    between atoms: _798  and  _799
REMARK  385  A    between atoms: _799  and  _800
REMARK  386  A    between atoms: _803  and  _804
REMARK  387  A    between atoms: _804  and  _805
REMARK  388  A    between atoms: _804  and  _807
REMARK  389  A    between atoms: _807  and  _808
REMARK  390  A    between atoms: _814  and  _815
REMARK  391  A    between atoms: _815  and  _816
REMARK  392  A    between atoms: _815  and  _818
REMARK  393  A    between atoms: _818  and  _819
REMARK  394  A    between atoms: _819  and  _820
REMARK  395  A    between atoms: _822  and  _823
REMARK  396  A    between atoms: _823  and  _824
REMARK  397  A    between atoms: _823  and  _826
REMARK  398  A    between atoms: _826  and  _827
REMARK  399  A    between atoms: _827  and  _828
REMARK  400  A    between atoms: _831  and  _832
REMARK  401  A    between atoms: _832  and  _833
REMARK  402  A    between atoms: _836  and  _837
REMARK  403  A    between atoms: _837  and  _838
REMARK  404  A    between atoms: _837  and  _840
REMARK  405  A    between atoms: _840  and  _841
REMARK  406  A    between atoms: _844  and  _845
REMARK  407  A    between atoms: _845  and  _846
REMARK  408  A    between atoms: _845  and  _848
REMARK  409  A    between atoms: _848  and  _849
REMARK  410  A    between atoms: _849  and  _850
REMARK  411  A    between atoms: _853  and  _854
REMARK  412  A    between atoms: _854  and  _855
REMARK  413  A    between atoms: _858  and  _859
REMARK  414  A    between atoms: _859  and  _860
REMARK  415  A    between atoms: _862  and  _863
REMARK  416  A    between atoms: _863  and  _864
REMARK  417  A    between atoms: _867  and  _868
REMARK  418  A    between atoms: _868  and  _869
REMARK  419  A    between atoms: _868  and  _871
REMARK  420  A    between atoms: _871  and  _872
REMARK  421  A    between atoms: _875  and  _876
REMARK  422  A    between atoms: _876  and  _877
REMARK  423  A    between atoms: _876  and  _879
REMARK  424  A    between atoms: _879  and  _880
REMARK  425  A    between atoms: _883  and  _884
REMARK  426  A    between atoms: _884  and  _887
REMARK  427  A    between atoms: _906  and  _907
REMARK  428  A    between atoms: _906  and  _909
REMARK  429  A    between atoms: _909  and  _910
REMARK  430  A    between atoms: _913  and  _914
REMARK  431  A    between atoms: _914  and  _915
REMARK  432  A    between atoms: _917  and  _918
REMARK  433  A    between atoms: _918  and  _919
REMARK  434  A    between atoms: _918  and  _921
REMARK  435  A    between atoms: _921  and  _922
REMARK  436  A    between atoms: _922  and  _923
REMARK  437  A    between atoms: _926  and  _927
REMARK  438  A    between atoms: _927  and  _928
REMARK  439  A    between atoms: _927  and  _930
REMARK  440  A    between atoms: _930  and  _931
REMARK  441  A    between atoms: _937  and  _938
REMARK  442  A    between atoms: _938  and  _939
REMARK  443  A    between atoms: _941  and  _942
REMARK  444  A    between atoms: _942  and  _943
REMARK  445  A    between atoms: _942  and  _945
REMARK  446  A    between atoms: _948  and  _949
REMARK  447  A    between atoms: _949  and  _950
REMARK  448  A    between atoms: _952  and  _953
REMARK  449  A    between atoms: _953  and  _954
REMARK  450  A    between atoms: _953  and  _956
REMARK  451  A    between atoms: _956  and  _957
REMARK  452  A    between atoms: _963  and  _964
REMARK  453  A    between atoms: _964  and  _965
REMARK  454  A    between atoms: _964  and  _967
REMARK  455  A    between atoms: _967  and  _968
REMARK  456  A    between atoms: _975  and  _976
REMARK  457  A    between atoms: _976  and  _977
REMARK  458  A    between atoms: _976  and  _979
REMARK  459  A    between atoms: _981  and  _982
REMARK  460  A    between atoms: _982  and  _983
REMARK  461  A    between atoms: _986  and  _987
REMARK  462  A    between atoms: _987  and  _988
REMARK  463  A    between atoms: _987  and  _990
REMARK  464  A    between atoms: _990  and  _991
REMARK  465  A    between atoms: _998  and  _999
REMARK  466  A    between atoms: _999  and  _1000
REMARK  467  A    between atoms: _999  and  _1002
REMARK  468  A    between atoms: _1002  and  _1003
REMARK  469  A    between atoms: _1006  and  _1007
REMARK  470  A    between atoms: _1007  and  _1008
REMARK  471  A    between atoms: _1007  and  _1010
REMARK  472  A    between atoms: _1013  and  _1014
REMARK  473  A    between atoms: _1014  and  _1015
REMARK  474  A    between atoms: _1018  and  _1019
REMARK  475  A    between atoms: _1019  and  _1020
REMARK  476  A    between atoms: _1019  and  _1022
REMARK  477  A    between atoms: _1023  and  _1024
REMARK  478  A    between atoms: _1027  and  _1028
REMARK  479  A    between atoms: _1028  and  _1029
REMARK  480  A    between atoms: _1028  and  _1031
REMARK  481  A    between atoms: _1031  and  _1032
REMARK  482  A    between atoms: _1032  and  _1033
REMARK  483  A    between atoms: _1033  and  _1034
REMARK  484  A    between atoms: _1036  and  _1037
REMARK  485  A    between atoms: _1037  and  _1038
REMARK  486  A    between atoms: _1037  and  _1040
REMARK  487  A    between atoms: _1043  and  _1044
REMARK  488  A    between atoms: _1044  and  _1045
REMARK  489  A    between atoms: _1044  and  _1047
REMARK  490  A    between atoms: _1050  and  _1051
REMARK  491  A    between atoms: _1051  and  _1052
REMARK  492  A    between atoms: _1051  and  _1054
REMARK  493  A    between atoms: _1057  and  _1058
REMARK  494  A    between atoms: _1058  and  _1059
REMARK  495  A    between atoms: _1058  and  _1061
REMARK  496  A    between atoms: _1061  and  _1062
REMARK  497  A    between atoms: _1065  and  _1066
REMARK  498  A    between atoms: _1066  and  _1067
REMARK  499  A    between atoms: _1066  and  _1069
REMARK  500  A    between atoms: _1072  and  _1073
REMARK  501  A    between atoms: _1073  and  _1074
REMARK  502  A    between atoms: _1073  and  _1076
REMARK  503  A    between atoms: _1076  and  _1077
REMARK  504  A    between atoms: _1077  and  _1078
REMARK  505  A    between atoms: _1078  and  _1079
REMARK  506  A    between atoms: _1081  and  _1082
REMARK  507  A    between atoms: _1082  and  _1083
REMARK  508  A    between atoms: _1082  and  _1085
REMARK  509  A    between atoms: _1085  and  _1086
REMARK  510  A    between atoms: _1091  and  _1092
REMARK  511  A    between atoms: _1092  and  _1093
REMARK  512  A    between atoms: _1092  and  _1095
REMARK  513  A    between atoms: _1095  and  _1096
REMARK  514  A    between atoms: _1099  and  _1100
REMARK  515  A    between atoms: _1100  and  _1101
REMARK  516  A    between atoms: _1100  and  _1103
REMARK  517  A    between atoms: _1103  and  _1104
REMARK  518  A    between atoms: _1107  and  _1108
REMARK  519  A    between atoms: _1108  and  _1111
REMARK  520  A    between atoms: _1111  and  _1112
REMARK  521  A    between atoms: _1125  and  _1127
REMARK  522  A    between atoms: _1134  and  _1135
REMARK  523  A    between atoms: _1134  and  _1137
REMARK  524  A    between atoms: _1137  and  _1138
REMARK  525  A    between atoms: _1138  and  _1139
REMARK  526  A    between atoms: _1142  and  _1143
REMARK  527  A    between atoms: _1143  and  _1144
REMARK  528  A    between atoms: _1143  and  _1146
REMARK  529  A    between atoms: _1146  and  _1147
REMARK  530  A    between atoms: _1154  and  _1155
REMARK  531  A    between atoms: _1155  and  _1156
REMARK  532  A    between atoms: _1159  and  _1160
REMARK  533  A    between atoms: _1160  and  _1161
REMARK  534  A    between atoms: _1160  and  _1163
REMARK  535  A    between atoms: _1163  and  _1164
REMARK  536  A    between atoms: _1173  and  _1174
REMARK  537  A    between atoms: _1174  and  _1175
REMARK  538  A    between atoms: _1174  and  _1177
REMARK  539  A    between atoms: _1177  and  _1178
REMARK  540  A    between atoms: _1178  and  _1179
REMARK  541  A    between atoms: _1182  and  _1183
REMARK  542  A    between atoms: _1183  and  _1184
REMARK  543  A    between atoms: _1183  and  _1186
REMARK  544  A    between atoms: _1188  and  _1189
REMARK  545  A    between atoms: _1189  and  _1190
REMARK  546  A    between atoms: _1189  and  _1192
REMARK  547  A    between atoms: _1194  and  _1195
REMARK  548  A    between atoms: _1195  and  _1196
REMARK  549  A    between atoms: _1199  and  _1200
REMARK  550  A    between atoms: _1200  and  _1201
REMARK  551  A    between atoms: _1203  and  _1204
REMARK  552  A    between atoms: _1204  and  _1205
REMARK  553  A    between atoms: _1207  and  _1208
REMARK  554  A    between atoms: _1208  and  _1209
REMARK  555  A    between atoms: _1208  and  _1211
REMARK  556  A    between atoms: _1213  and  _1214
REMARK  557  A    between atoms: _1214  and  _1215
REMARK  558  A    between atoms: _1214  and  _1217
REMARK  559  A    between atoms: _1217  and  _1218
REMARK  560  A    between atoms: _1224  and  _1225
REMARK  561  A    between atoms: _1225  and  _1226
REMARK  562  A    between atoms: _1225  and  _1228
REMARK  563  A    between atoms: _1231  and  _1232
REMARK  564  A    between atoms: _1232  and  _1233
REMARK  565  A    between atoms: _1232  and  _1235
REMARK  566  A    between atoms: _1238  and  _1239
REMARK  567  A    between atoms: _1239  and  _1240
REMARK  568  A    between atoms: _1239  and  _1242
REMARK  569  A    between atoms: _1242  and  _1243
REMARK  570  A    between atoms: _1243  and  _1244
REMARK  571  A    between atoms: _1244  and  _1245
REMARK  572  A    between atoms: _1249  and  _1250
REMARK  573  A    between atoms: _1250  and  _1251
REMARK  574  A    between atoms: _1250  and  _1253
REMARK  575  A    between atoms: _1256  and  _1257
REMARK  576  A    between atoms: _1257  and  _1258
REMARK  577  A    between atoms: _1257  and  _1260
REMARK  578  A    between atoms: _1260  and  _1261
REMARK  579  A    between atoms: _1264  and  _1265
REMARK  580  A    between atoms: _1265  and  _1266
REMARK  581  A    between atoms: _1265  and  _1268
REMARK  582  A    between atoms: _1271  and  _1272
REMARK  583  A    between atoms: _1272  and  _1273
REMARK  584  A    between atoms: _1275  and  _1276
REMARK  585  A    between atoms: _1276  and  _1277
REMARK  586  A    between atoms: _1276  and  _1279
REMARK  587  A    between atoms: _1279  and  _1280
REMARK  588  A    between atoms: _1280  and  _1281
REMARK  589  A    between atoms: _1285  and  _1286
REMARK  590  A    between atoms: _1291  and  _1293
REMARK  591  A    between atoms: _1298  and  _1299
REMARK  592  A    between atoms: _1299  and  _1301
REMARK  593  A    between atoms: _1300  and  _1301
REMARK  594  A    between atoms: _1304  and  _1305
REMARK  595  A    between atoms: _1305  and  _1306
REMARK  596  A    between atoms: _1308  and  _1309
REMARK  597  A    between atoms: _1309  and  _1310
REMARK  598  A    between atoms: _1309  and  _1312
REMARK  599  A    between atoms: _1312  and  _1313
REMARK  600  A    between atoms: _1313  and  _1314
REMARK  601  A    between atoms: _1314  and  _1315
REMARK  602  A    between atoms: _1319  and  _1320
REMARK  603  A    between atoms: _1320  and  _1321
REMARK  604  A    between atoms: _1323  and  _1324
REMARK  605  A    between atoms: _1324  and  _1325
REMARK  606  A    between atoms: _1324  and  _1327
REMARK  607  A    between atoms: _1330  and  _1331
REMARK  608  A    between atoms: _1331  and  _1332
REMARK  609  A    between atoms: _1331  and  _1334
REMARK  610  A    between atoms: _1334  and  _1335
REMARK  611  A    between atoms: _1335  and  _1336
REMARK  612  A    between atoms: _1336  and  _1337
REMARK  613  A    between atoms: _1339  and  _1340
REMARK  614  A    between atoms: _1340  and  _1341
REMARK  615  A    between atoms: _1340  and  _1343
REMARK  616  A    between atoms: _1346  and  _1347
REMARK  617  A    between atoms: _1347  and  _1348
REMARK  618  A    between atoms: _1347  and  _1350
REMARK  619  A    between atoms: _1350  and  _1351
REMARK  620  A    between atoms: _1354  and  _1355
REMARK  621  A    between atoms: _1355  and  _1356
REMARK  622  A    between atoms: _1355  and  _1358
REMARK  623  A    between atoms: _1358  and  _1359
REMARK  624  A    between atoms: _1362  and  _1363
REMARK  625  A    between atoms: _1363  and  _1364
REMARK  626  A    between atoms: _1363  and  _1366
REMARK  627  A    between atoms: _1366  and  _1367
REMARK  628  A    between atoms: _1372  and  _1373
REMARK  629  A    between atoms: _1373  and  _1374
REMARK  630  A    between atoms: _1373  and  _1376
REMARK  631  A    between atoms: _1376  and  _1377
REMARK  632  A    between atoms: _1380  and  _1381
REMARK  633  A    between atoms: _1381  and  _1382
REMARK  634  A    between atoms: _1381  and  _1384
REMARK  635  A    between atoms: _1384  and  _1385
REMARK  636  A    between atoms: _1385  and  _1386
REMARK  637  A    between atoms: _1386  and  _1387
REMARK  638  A    between atoms: _1389  and  _1390
REMARK  639  A    between atoms: _1390  and  _1391
REMARK  640  A    between atoms: _1390  and  _1393
REMARK  641  A    between atoms: _1393  and  _1394
REMARK  642  A    between atoms: _1394  and  _1395
REMARK  643  A    between atoms: _1398  and  _1399
REMARK  644  A    between atoms: _1399  and  _1400
REMARK  645  A    between atoms: _1399  and  _1402
REMARK  646  A    between atoms: _1402  and  _1403
REMARK  647  A    between atoms: _1406  and  _1407
REMARK  648  A    between atoms: _1407  and  _1408
REMARK  649  A    between atoms: _1407  and  _1410
REMARK  650  A    between atoms: _1410  and  _1411
REMARK  651  A    between atoms: _1411  and  _1412
REMARK  652  A    between atoms: _1415  and  _1416
REMARK  653  A    between atoms: _1416  and  _1417
REMARK  654  A    between atoms: _1416  and  _1419
REMARK  655  A    between atoms: _1422  and  _1423
REMARK  656  A    between atoms: _1423  and  _1424
REMARK  657  A    between atoms: _1423  and  _1426
REMARK  658  A    between atoms: _1426  and  _1427
REMARK  659  A    between atoms: _1427  and  _1428
REMARK  660  A    between atoms: _1431  and  _1432
REMARK  661  A    between atoms: _1432  and  _1433
REMARK  662  A    between atoms: _1432  and  _1435
REMARK  663  A    between atoms: _1435  and  _1436
REMARK  664  A    between atoms: _1443  and  _1444
REMARK  665  A    between atoms: _1444  and  _1445
REMARK  666  A    between atoms: _1444  and  _1447
REMARK  667  A    between atoms: _1447  and  _1448
REMARK  668  A    between atoms: _1451  and  _1452
REMARK  669  A    between atoms: _1452  and  _1453
REMARK  670  A    between atoms: _1452  and  _1455
REMARK  671  A    between atoms: _1455  and  _1456
REMARK  672  A    between atoms: _1456  and  _1457
REMARK  673  A    between atoms: _1460  and  _1461
REMARK  674  A    between atoms: _1461  and  _1462
REMARK  675  A    between atoms: _1461  and  _1464
REMARK  676  A    between atoms: _1464  and  _1465
REMARK  677  A    between atoms: _1465  and  _1466
REMARK  678  A    between atoms: _1469  and  _1470
REMARK  679  A    between atoms: _1470  and  _1471
REMARK  680  A    between atoms: _1470  and  _1473
REMARK  681  A    between atoms: _1473  and  _1474
REMARK  682  A    between atoms: _1474  and  _1475
REMARK  683  A    between atoms: _1475  and  _1476
REMARK  684  A    between atoms: _1480  and  _1481
REMARK  685  A    between atoms: _1481  and  _1482
REMARK  686  A    between atoms: _1481  and  _1484
REMARK  687  A    between atoms: _1484  and  _1485
REMARK  688  A    between atoms: _1485  and  _1486
REMARK  689  A    between atoms: _1486  and  _1487
REMARK  690  A    between atoms: _1491  and  _1492
REMARK  691  A    between atoms: _1492  and  _1493
REMARK  692  A    between atoms: _1492  and  _1495
REMARK  693  A    between atoms: _1495  and  _1496
REMARK  694  A    between atoms: _1499  and  _1500
REMARK  695  A    between atoms: _1500  and  _1501
REMARK  696  A    between atoms: _1500  and  _1503
REMARK  697  A    between atoms: _1503  and  _1504
REMARK  698  A    between atoms: _1504  and  _1505
REMARK  699  A    between atoms: _1505  and  _1506
REMARK  700  A    between atoms: _1508  and  _1509
REMARK  701  A    between atoms: _1509  and  _1510
REMARK  702  A    between atoms: _1509  and  _1512
REMARK  703  A    between atoms: _1512  and  _1513
REMARK  704  A    between atoms: _1513  and  _1514
REMARK  705  A    between atoms: _1517  and  _1518
REMARK  706  A    between atoms: _1518  and  _1519
REMARK  707  A    between atoms: _1518  and  _1521
REMARK  708  A    between atoms: _1521  and  _1522
REMARK  709  A    between atoms: _1525  and  _1526
REMARK  710  A    between atoms: _1526  and  _1527
REMARK  711  A    between atoms: _1526  and  _1529
REMARK  712  A    between atoms: _1532  and  _1533
REMARK  713  A    between atoms: _1533  and  _1534
REMARK  714  A    between atoms: _1533  and  _1536
REMARK  715  A    between atoms: _1536  and  _1537
REMARK  716  A    between atoms: _1537  and  _1538
REMARK  717  A    between atoms: _1538  and  _1539
REMARK  718  A    between atoms: _1541  and  _1542
REMARK  719  A    between atoms: _1542  and  _1543
REMARK  720  A    between atoms: _1542  and  _1545
REMARK  721  A    between atoms: _1545  and  _1546
REMARK  722  A    between atoms: _1546  and  _1547
REMARK  723  A    between atoms: _1547  and  _1548
REMARK  724  A    between atoms: _1550  and  _1551
REMARK  725  A    between atoms: _1551  and  _1552
REMARK  726  A    between atoms: _1551  and  _1554
REMARK  727  A    between atoms: _1554  and  _1555
REMARK  728  A    between atoms: _1560  and  _1561
REMARK  729  A    between atoms: _1561  and  _1562
REMARK  730  A    between atoms: _1561  and  _1564
REMARK  731  A    between atoms: _1566  and  _1567
REMARK  732  A    between atoms: _1567  and  _1568
REMARK  733  A    between atoms: _1567  and  _1570
REMARK  734  A    between atoms: _1570  and  _1571
REMARK  735  A    between atoms: _1571  and  _1572
REMARK  736  A    between atoms: _1575  and  _1576
REMARK  737  A    between atoms: _1576  and  _1577
REMARK  738  A    between atoms: _1576  and  _1579
REMARK  739  A    between atoms: _1579  and  _1580
REMARK  740  A    between atoms: _1586  and  _1587
REMARK  741  A    between atoms: _1587  and  _1588
REMARK  742  A    between atoms: _1587  and  _1590
REMARK  743  A    between atoms: _1590  and  _1591
REMARK  744  A    between atoms: _1594  and  _1595
REMARK  745  A    between atoms: _1595  and  _1596
REMARK  746  A    between atoms: _1598  and  _1599
REMARK  747  A    between atoms: _1599  and  _1600
REMARK  748  A    between atoms: _1599  and  _1602
REMARK  749  A    between atoms: _1602  and  _1603
REMARK  750  A    between atoms: _1611  and  _1612
REMARK  751  A    between atoms: _1617  and  _1618
REMARK  752  A    between atoms: _1618  and  _1619
REMARK  753  A    between atoms: _1618  and  _1621
REMARK  754  A    between atoms: _1621  and  _1622
REMARK  755  A    between atoms: _1625  and  _1626
REMARK  756  A    between atoms: _1626  and  _1627
REMARK  757  A    between atoms: _1626  and  _1629
REMARK  758  A    between atoms: _1632  and  _1633
REMARK  759  A    between atoms: _1633  and  _1634
REMARK  760  A    between atoms: _1633  and  _1636
REMARK  761  A    between atoms: _1636  and  _1637
REMARK  762  A    between atoms: _1640  and  _1641
REMARK  763  A    between atoms: _1641  and  _1642
REMARK  764  A    between atoms: _1641  and  _1644
REMARK  765  A    between atoms: _1644  and  _1645
REMARK  766  A    between atoms: _1651  and  _1652
REMARK  767  A    between atoms: _1652  and  _1653
REMARK  768  A    between atoms: _1652  and  _1655
REMARK  769  A    between atoms: _1658  and  _1659
REMARK  770  A    between atoms: _1659  and  _1660
REMARK  771  A    between atoms: _1659  and  _1662
REMARK  772  A    between atoms: _1662  and  _1663
REMARK  773  A    between atoms: _1663  and  _1664
REMARK  774  A    between atoms: _1667  and  _1668
REMARK  775  A    between atoms: _1668  and  _1669
REMARK  776  A    between atoms: _1668  and  _1671
REMARK  777  A    between atoms: _1671  and  _1672
REMARK  778  A    between atoms: _1672  and  _1673
REMARK  779  A    between atoms: _1673  and  _1674
REMARK                            x       y       z     vdW  Elec       q    Type
REMARK                         _______ _______ _______ _____ _____    ______ ____
ROOT
ATOM      1  C   UNL     1      -6.189  12.415  34.918  0.00  0.00    +0.341 C 
ATOM      2  O   UNL     1      -5.082  12.094  35.356  0.00  0.00    -0.262 OA
ATOM      3  N   UNL     1      -6.825  11.811  33.933  0.00  0.00    -0.080 NA
ENDROOT
TORSDOF 0
REMARK  Name = /Users/mlugowska/PhD/ML_residence_time_prediction/protein_files/5NYH_protein.pdb
REMARK  779 active torsions:
REMARK  status: ('A' for Active; 'I' for Inactive)
REMARK    1  A    between atoms: _2  and  _3
REMARK    2  A    between atoms: _2  and  _5
REMARK    3  A    between atoms: _5  and  _6
REMARK    4  A    between atoms: _6  and  _7
REMARK    5  A    between atoms: _10  and  _11
REMARK    6  A    between atoms: _11  and  _12
REMARK    7  A    between atoms: _11  and  _14
REMARK    8  A    between atoms: _17  and  _18
REMARK    9  A    between atoms: _18  and  _19
REMARK   10  A    between atoms: _18  and  _21
REMARK   11  A    between atoms: _21  and  _22
REMARK   12  A    between atoms: _22  and  _23
REMARK   13  A    between atoms: _26  and  _27
REMARK   14  A    between atoms: _27  and  _28
REMARK   15  A    between atoms: _27  and  _30
REMARK   16  A    between atoms: _33  and  _34
REMARK   17  A    between atoms: _34  and  _35
REMARK   18  A    between atoms: _34  and  _37
REMARK   19  A    between atoms: _37  and  _38
REMARK   20  A    between atoms: _44  and  _45
REMARK   21  A    between atoms: _45  and  _46
REMARK   22  A    between atoms: _49  and  _50
REMARK   23  A    between atoms: _50  and  _51
REMARK   24  A    between atoms: _50  and  _53
REMARK   25  A    between atoms: _53  and  _54
REMARK   26  A    between atoms: _60  and  _61
REMARK   27  A    between atoms: _61  and  _62
REMARK   28  A    between atoms: _61  and  _64
REMARK   29  A    between atoms: _64  and  _65
REMARK   30  A    between atoms: _65  and  _66
REMARK   31  A    between atoms: _69  and  _70
REMARK   32  A    between atoms: _70  and  _71
REMARK   33  A    between atoms: _74  and  _75
REMARK   34  A    between atoms: _75  and  _76
REMARK   35  A    between atoms: _75  and  _78
REMARK   36  A    between atoms: _78  and  _79
REMARK   37  A    between atoms: _79  and  _80
REMARK   38  A    between atoms: _83  and  _84
REMARK   39  A    between atoms: _84  and  _85
REMARK   40  A    between atoms: _84  and  _87
REMARK   41  A    between atoms: _87  and  _88
REMARK   42  A    between atoms: _91  and  _92
REMARK   43  A    between atoms: _92  and  _93
REMARK   44  A    between atoms: _96  and  _97
REMARK   45  A    between atoms: _97  and  _98
REMARK   46  A    between atoms: _97  and  _100
REMARK   47  A    between atoms: _100  and  _101
REMARK   48  A    between atoms: _101  and  _102
REMARK   49  A    between atoms: _105  and  _106
REMARK   50  A    between atoms: _106  and  _107
REMARK   51  A    between atoms: _106  and  _109
REMARK   52  A    between atoms: _109  and  _110
REMARK   53  A    between atoms: _113  and  _114
REMARK   54  A    between atoms: _114  and  _115
REMARK   55  A    between atoms: _114  and  _117
REMARK   56  A    between atoms: _117  and  _118
REMARK   57  A    between atoms: _118  and  _119
REMARK   58  A    between atoms: _121  and  _122
REMARK   59  A    between atoms: _122  and  _123
REMARK   60  A    between atoms: _122  and  _125
REMARK   61  A    between atoms: _127  and  _128
REMARK   62  A    between atoms: _128  and  _129
REMARK   63  A    between atoms: _128  and  _131
REMARK   64  A    between atoms: _131  and  _132
REMARK   65  A    between atoms: _135  and  _136
REMARK   66  A    between atoms: _136  and  _137
REMARK   67  A    between atoms: _136  and  _139
REMARK   68  A    between atoms: _139  and  _140
REMARK   69  A    between atoms: _143  and  _144
REMARK   70  A    between atoms: _144  and  _145
REMARK   71  A    between atoms: _144  and  _147
REMARK   72  A    between atoms: _147  and  _148
REMARK   73  A    between atoms: _151  and  _152
REMARK   74  A    between atoms: _152  and  _153
REMARK   75  A    between atoms: _152  and  _155
REMARK   76  A    between atoms: _155  and  _156
REMARK   77  A    between atoms: _159  and  _160
REMARK   78  A    between atoms: _160  and  _161
REMARK   79  A    between atoms: _160  and  _163
REMARK   80  A    between atoms: _166  and  _167
REMARK   81  A    between atoms: _167  and  _168
REMARK   82  A    between atoms: _167  and  _170
REMARK   83  A    between atoms: _170  and  _171
REMARK   84  A    between atoms: _177  and  _178
REMARK   85  A    between atoms: _178  and  _179
REMARK   86  A    between atoms: _178  and  _181
REMARK   87  A    between atoms: _181  and  _182
REMARK   88  A    between atoms: _189  and  _190
REMARK   89  A    between atoms: _190  and  _191
REMARK   90  A    between atoms: _190  and  _193
REMARK   91  A    between atoms: _195  and  _196
REMARK   92  A    between atoms: _196  and  _197
REMARK   93  A    between atoms: _196  and  _199
REMARK   94  A    between atoms: _199  and  _200
REMARK   95  A    between atoms: _203  and  _204
REMARK   96  A    between atoms: _204  and  _205
REMARK   97  A    between atoms: _204  and  _207
REMARK   98  A    between atoms: _207  and  _208
REMARK   99  A    between atoms: _208  and  _209
REMARK  100  A    between atoms: _209  and  _210
REMARK  101  A    between atoms: _212  and  _213
REMARK  102  A    between atoms: _213  and  _214
REMARK  103  A    between atoms: _213  and  _216
REMARK  104  A    between atoms: _216  and  _217
REMARK  105  A    between atoms: _217  and  _218
REMARK  106  A    between atoms: _221  and  _222
REMARK  107  A    between atoms: _222  and  _223
REMARK  108  A    between atoms: _222  and  _225
REMARK  109  A    between atoms: _225  and  _226
REMARK  110  A    between atoms: _229  and  _230
REMARK  111  A    between atoms: _230  and  _231
REMARK  112  A    between atoms: _230  and  _233
REMARK  113  A    between atoms: _233  and  _234
REMARK  114  A    between atoms: _240  and  _241
REMARK  115  A    between atoms: _241  and  _242
REMARK  116  A    between atoms: _241  and  _244
REMARK  117  A    between atoms: _244  and  _245
REMARK  118  A    between atoms: _248  and  _249
REMARK  119  A    between atoms: _249  and  _250
REMARK  120  A    between atoms: _249  and  _252
REMARK  121  A    between atoms: _252  and  _253
REMARK  122  A    between atoms: _253  and  _254
REMARK  123  A    between atoms: _254  and  _255
REMARK  124  A    between atoms: _259  and  _260
REMARK  125  A    between atoms: _260  and  _261
REMARK  126  A    between atoms: _260  and  _263
REMARK  127  A    between atoms: _263  and  _264
REMARK  128  A    between atoms: _264  and  _265
REMARK  129  A    between atoms: _268  and  _269
REMARK  130  A    between atoms: _269  and  _270
REMARK  131  A    between atoms: _269  and  _272
REMARK  132  A    between atoms: _272  and  _273
REMARK  133  A    between atoms: _276  and  _277
REMARK  134  A    between atoms: _277  and  _278
REMARK  135  A    between atoms: _277  and  _280
REMARK  136  A    between atoms: _280  and  _281
REMARK  137  A    between atoms: _284  and  _285
REMARK  138  A    between atoms: _285  and  _286
REMARK  139  A    between atoms: _285  and  _288
REMARK  140  A    between atoms: _290  and  _291
REMARK  141  A    between atoms: _291  and  _292
REMARK  142  A    between atoms: _291  and  _294
REMARK  143  A    between atoms: _294  and  _295
REMARK  144  A    between atoms: _298  and  _299
REMARK  145  A    between atoms: _299  and  _300
REMARK  146  A    between atoms: _299  and  _302
REMARK  147  A    between atoms: _304  and  _305
REMARK  148  A    between atoms: _305  and  _306
REMARK  149  A    between atoms: _305  and  _308
REMARK  150  A    between atoms: _310  and  _311
REMARK  151  A    between atoms: _311  and  _312
REMARK  152  A    between atoms: _311  and  _314
REMARK  153  A    between atoms: _314  and  _315
REMARK  154  A    between atoms: _318  and  _319
REMARK  155  A    between atoms: _319  and  _320
REMARK  156  A    between atoms: _323  and  _324
REMARK  157  A    between atoms: _324  and  _325
REMARK  158  A    between atoms: _324  and  _327
REMARK  159  A    between atoms: _327  and  _328
REMARK  160  A    between atoms: _331  and  _332
REMARK  161  A    between atoms: _332  and  _333
REMARK  162  A    between atoms: _332  and  _335
REMARK  163  A    between atoms: _335  and  _336
REMARK  164  A    between atoms: _339  and  _340
REMARK  165  A    between atoms: _340  and  _341
REMARK  166  A    between atoms: _340  and  _343
REMARK  167  A    between atoms: _343  and  _344
REMARK  168  A    between atoms: _344  and  _345
REMARK  169  A    between atoms: _345  and  _346
REMARK  170  A    between atoms: _348  and  _349
REMARK  171  A    between atoms: _349  and  _350
REMARK  172  A    between atoms: _349  and  _352
REMARK  173  A    between atoms: _352  and  _353
REMARK  174  A    between atoms: _356  and  _357
REMARK  175  A    between atoms: _357  and  _358
REMARK  176  A    between atoms: _357  and  _360
REMARK  177  A    between atoms: _360  and  _361
REMARK  178  A    between atoms: _361  and  _362
REMARK  179  A    between atoms: _362  and  _363
REMARK  180  A    between atoms: _367  and  _368
REMARK  181  A    between atoms: _368  and  _369
REMARK  182  A    between atoms: _368  and  _371
REMARK  183  A    between atoms: _371  and  _372
REMARK  184  A    between atoms: _379  and  _380
REMARK  185  A    between atoms: _380  and  _381
REMARK  186  A    between atoms: _380  and  _383
REMARK  187  A    between atoms: _383  and  _384
REMARK  188  A    between atoms: _384  and  _385
REMARK  189  A    between atoms: _388  and  _389
REMARK  190  A    between atoms: _389  and  _390
REMARK  191  A    between atoms: _389  and  _392
REMARK  192  A    between atoms: _394  and  _395
REMARK  193  A    between atoms: _395  and  _396
REMARK  194  A    between atoms: _395  and  _398
REMARK  195  A    between atoms: _398  and  _399
REMARK  196  A    between atoms: _402  and  _403
REMARK  197  A    between atoms: _403  and  _404
REMARK  198  A    between atoms: _403  and  _406
REMARK  199  A    between atoms: _409  and  _410
REMARK  200  A    between atoms: _410  and  _411
REMARK  201  A    between atoms: _410  and  _413
REMARK  202  A    between atoms: _413  and  _414
REMARK  203  A    between atoms: _418  and  _419
REMARK  204  A    between atoms: _424  and  _425
REMARK  205  A    between atoms: _425  and  _426
REMARK  206  A    between atoms: _425  and  _428
REMARK  207  A    between atoms: _430  and  _431
REMARK  208  A    between atoms: _431  and  _432
REMARK  209  A    between atoms: _431  and  _434
REMARK  210  A    between atoms: _434  and  _435
REMARK  211  A    between atoms: _435  and  _436
REMARK  212  A    between atoms: _436  and  _437
REMARK  213  A    between atoms: _439  and  _440
REMARK  214  A    between atoms: _440  and  _441
REMARK  215  A    between atoms: _440  and  _443
REMARK  216  A    between atoms: _443  and  _444
REMARK  217  A    between atoms: _447  and  _448
REMARK  218  A    between atoms: _448  and  _449
REMARK  219  A    between atoms: _448  and  _451
REMARK  220  A    between atoms: _451  and  _452
REMARK  221  A    between atoms: _455  and  _456
REMARK  222  A    between atoms: _456  and  _457
REMARK  223  A    between atoms: _456  and  _459
REMARK  224  A    between atoms: _461  and  _462
REMARK  225  A    between atoms: _462  and  _463
REMARK  226  A    between atoms: _465  and  _466
REMARK  227  A    between atoms: _466  and  _467
REMARK  228  A    between atoms: _466  and  _469
REMARK  229  A    between atoms: _469  and  _470
REMARK  230  A    between atoms: _470  and  _471
REMARK  231  A    between atoms: _471  and  _472
REMARK  232  A    between atoms: _474  and  _475
REMARK  233  A    between atoms: _475  and  _476
REMARK  234  A    between atoms: _475  and  _478
REMARK  235  A    between atoms: _478  and  _479
REMARK  236  A    between atoms: _479  and  _480
REMARK  237  A    between atoms: _483  and  _484
REMARK  238  A    between atoms: _484  and  _485
REMARK  239  A    between atoms: _484  and  _487
REMARK  240  A    between atoms: _487  and  _488
REMARK  241  A    between atoms: _491  and  _492
REMARK  242  A    between atoms: _492  and  _493
REMARK  243  A    between atoms: _492  and  _495
REMARK  244  A    between atoms: _495  and  _496
REMARK  245  A    between atoms: _501  and  _502
REMARK  246  A    between atoms: _502  and  _503
REMARK  247  A    between atoms: _502  and  _505
REMARK  248  A    between atoms: _505  and  _506
REMARK  249  A    between atoms: _509  and  _510
REMARK  250  A    between atoms: _510  and  _511
REMARK  251  A    between atoms: _510  and  _513
REMARK  252  A    between atoms: _513  and  _514
REMARK  253  A    between atoms: _517  and  _518
REMARK  254  A    between atoms: _518  and  _519
REMARK  255  A    between atoms: _518  and  _521
REMARK  256  A    between atoms: _521  and  _522
REMARK  257  A    between atoms: _525  and  _526
REMARK  258  A    between atoms: _526  and  _527
REMARK  259  A    between atoms: _526  and  _529
REMARK  260  A    between atoms: _529  and  _530
REMARK  261  A    between atoms: _534  and  _535
REMARK  262  A    between atoms: _540  and  _541
REMARK  263  A    between atoms: _541  and  _542
REMARK  264  A    between atoms: _541  and  _544
REMARK  265  A    between atoms: _544  and  _545
REMARK  266  A    between atoms: _548  and  _549
REMARK  267  A    between atoms: _549  and  _552
REMARK  268  A    between atoms: _552  and  _553
REMARK  269  A    between atoms: _553  and  _554
REMARK  270  A    between atoms: _554  and  _555
REMARK  271  A    between atoms: _568  and  _569
REMARK  272  A    between atoms: _576  and  _577
REMARK  273  A    between atoms: _576  and  _579
REMARK  274  A    between atoms: _579  and  _580
REMARK  275  A    between atoms: _583  and  _584
REMARK  276  A    between atoms: _584  and  _585
REMARK  277  A    between atoms: _584  and  _587
REMARK  278  A    between atoms: _587  and  _588
REMARK  279  A    between atoms: _588  and  _589
REMARK  280  A    between atoms: _589  and  _590
REMARK  281  A    between atoms: _594  and  _595
REMARK  282  A    between atoms: _595  and  _596
REMARK  283  A    between atoms: _595  and  _598
REMARK  284  A    between atoms: _601  and  _602
REMARK  285  A    between atoms: _602  and  _603
REMARK  286  A    between atoms: _602  and  _605
REMARK  287  A    between atoms: _605  and  _606
REMARK  288  A    between atoms: _609  and  _610
REMARK  289  A    between atoms: _610  and  _611
REMARK  290  A    between atoms: _610  and  _613
REMARK  291  A    between atoms: _616  and  _617
REMARK  292  A    between atoms: _617  and  _618
REMARK  293  A    between atoms: _617  and  _620
REMARK  294  A    between atoms: _620  and  _621
REMARK  295  A    between atoms: _624  and  _625
REMARK  296  A    between atoms: _625  and  _626
REMARK  297  A    between atoms: _625  and  _628
REMARK  298  A    between atoms: _631  and  _632
REMARK  299  A    between atoms: _632  and  _633
REMARK  300  A    between atoms: _632  and  _635
REMARK  301  A    between atoms: _635  and  _636
REMARK  302  A    between atoms: _639  and  _640
REMARK  303  A    between atoms: _640  and  _641
REMARK  304  A    between atoms: _640  and  _643
REMARK  305  A    between atoms: _646  and  _647
REMARK  306  A    between atoms: _647  and  _648
REMARK  307  A    between atoms: _650  and  _651
REMARK  308  A    between atoms: _651  and  _652
REMARK  309  A    between atoms: _651  and  _654
REMARK  310  A    between atoms: _654  and  _655
REMARK  311  A    between atoms: _658  and  _659
REMARK  312  A    between atoms: _659  and  _660
REMARK  313  A    between atoms: _662  and  _663
REMARK  314  A    between atoms: _663  and  _664
REMARK  315  A    between atoms: _663  and  _666
REMARK  316  A    between atoms: _666  and  _667
REMARK  317  A    between atoms: _667  and  _668
REMARK  318  A    between atoms: _670  and  _671
REMARK  319  A    between atoms: _671  and  _672
REMARK  320  A    between atoms: _671  and  _674
REMARK  321  A    between atoms: _677  and  _678
REMARK  322  A    between atoms: _678  and  _679
REMARK  323  A    between atoms: _678  and  _681
REMARK  324  A    between atoms: _681  and  _682
REMARK  325  A    between atoms: _682  and  _683
REMARK  326  A    between atoms: _683  and  _684
REMARK  327  A    between atoms: _686  and  _687
REMARK  328  A    between atoms: _687  and  _688
REMARK  329  A    between atoms: _691  and  _692
REMARK  330  A    between atoms: _692  and  _693
REMARK  331  A    between atoms: _692  and  _695
REMARK  332  A    between atoms: _695  and  _696
REMARK  333  A    between atoms: _699  and  _700
REMARK  334  A    between atoms: _700  and  _701
REMARK  335  A    between atoms: _700  and  _703
REMARK  336  A    between atoms: _703  and  _704
REMARK  337  A    between atoms: _707  and  _708
REMARK  338  A    between atoms: _708  and  _709
REMARK  339  A    between atoms: _708  and  _711
REMARK  340  A    between atoms: _711  and  _712
REMARK  341  A    between atoms: _715  and  _716
REMARK  342  A    between atoms: _716  and  _717
REMARK  343  A    between atoms: _716  and  _719
REMARK  344  A    between atoms: _719  and  _720
REMARK  345  A    between atoms: _723  and  _724
REMARK  346  A    between atoms: _724  and  _725
REMARK  347  A    between atoms: _724  and  _727
REMARK  348  A    between atoms: _727  and  _728
REMARK  349  A    between atoms: _731  and  _732
REMARK  350  A    between atoms: _732  and  _733
REMARK  351  A    between atoms: _732  and  _735
REMARK  352  A    between atoms: _735  and  _736
REMARK  353  A    between atoms: _739  and  _740
REMARK  354  A    between atoms: _740  and  _741
REMARK  355  A    between atoms: _743  and  _744
REMARK  356  A    between atoms: _744  and  _745
REMARK  357  A    between atoms: _744  and  _747
REMARK  358  A    between atoms: _750  and  _751
REMARK  359  A    between atoms: _751  and  _752
REMARK  360  A    between atoms: _751  and  _754
REMARK  361  A    between atoms: _754  and  _755
REMARK  362  A    between atoms: _758  and  _759
REMARK  363  A    between atoms: _759  and  _760
REMARK  364  A    between atoms: _763  and  _764
REMARK  365  A    between atoms: _764  and  _765
REMARK  366  A    between atoms: _764  and  _767
REMARK  367  A    between atoms: _767  and  _768
REMARK  368  A    between atoms: _768  and  _769
REMARK  369  A    between atoms: _769  and  _770
REMARK  370  A    between atoms: _772  and  _773
REMARK  371  A    between atoms: _773  and  _774
REMARK  372  A    between atoms: _773  and  _776
REMARK  373  A    between atoms: _778  and  _779
REMARK  374  A    between atoms: _779  and  _780
REMARK  375  A    between atoms: _782  and  _783
REMARK  376  A    between atoms: _783  and  _784
REMARK  377  A    between atoms: _783  and  _786
REMARK  378  A    between atoms: _789  and  _790
REMARK  379  A    between atoms: _790  and  _791
REMARK  380  A    between atoms: _790  and  _793
REMARK  381  A    between atoms: _793  and  _794
REMARK  382  A    between atoms: _794  and  _795
REMARK  383  A    between atoms: _795  and  _796
REMARK  384  A    between atoms: _798  and  _799
REMARK  385  A    between atoms: _799  and  _800
REMARK  386  A    between atoms: _803  and  _804
REMARK  387  A    between atoms: _804  and  _805
REMARK  388  A    between atoms: _804  and  _807
REMARK  389  A    between atoms: _807  and  _808
REMARK  390  A    between atoms: _814  and  _815
REMARK  391  A    between atoms: _815  and  _816
REMARK  392  A    between atoms: _815  and  _818
REMARK  393  A    between atoms: _818  and  _819
REMARK  394  A    between atoms: _819  and  _820
REMARK  395  A    between atoms: _822  and  _823
REMARK  396  A    between atoms: _823  and  _824
REMARK  397  A    between atoms: _823  and  _826
REMARK  398  A    between atoms: _826  and  _827
REMARK  399  A    between atoms: _827  and  _828
REMARK  400  A    between atoms: _831  and  _832
REMARK  401  A    between atoms: _832  and  _833
REMARK  402  A    between atoms: _836  and  _837
REMARK  403  A    between atoms: _837  and  _838
REMARK  404  A    between atoms: _837  and  _840
REMARK  405  A    between atoms: _840  and  _841
REMARK  406  A    between atoms: _844  and  _845
REMARK  407  A    between atoms: _845  and  _846
REMARK  408  A    between atoms: _845  and  _848
REMARK  409  A    between atoms: _848  and  _849
REMARK  410  A    between atoms: _849  and  _850
REMARK  411  A    between atoms: _853  and  _854
REMARK  412  A    between atoms: _854  and  _855
REMARK  413  A    between atoms: _858  and  _859
REMARK  414  A    between atoms: _859  and  _860
REMARK  415  A    between atoms: _862  and  _863
REMARK  416  A    between atoms: _863  and  _864
REMARK  417  A    between atoms: _867  and  _868
REMARK  418  A    between atoms: _868  and  _869
REMARK  419  A    between atoms: _868  and  _871
REMARK  420  A    between atoms: _871  and  _872
REMARK  421  A    between atoms: _875  and  _876
REMARK  422  A    between atoms: _876  and  _877
REMARK  423  A    between atoms: _876  and  _879
REMARK  424  A    between atoms: _879  and  _880
REMARK  425  A    between atoms: _883  and  _884
REMARK  426  A    between atoms: _884  and  _887
REMARK  427  A    between atoms: _906  and  _907
REMARK  428  A    between atoms: _906  and  _909
REMARK  429  A    between atoms: _909  and  _910
REMARK  430  A    between atoms: _913  and  _914
REMARK  431  A    between atoms: _914  and  _915
REMARK  432  A    between atoms: _917  and  _918
REMARK  433  A    between atoms: _918  and  _919
REMARK  434  A    between atoms: _918  and  _921
REMARK  435  A    between atoms: _921  and  _922
REMARK  436  A    between atoms: _922  and  _923
REMARK  437  A    between atoms: _926  and  _927
REMARK  438  A    between atoms: _927  and  _928
REMARK  439  A    between atoms: _927  and  _930
REMARK  440  A    between atoms: _930  and  _931
REMARK  441  A    between atoms: _937  and  _938
REMARK  442  A    between atoms: _938  and  _939
REMARK  443  A    between atoms: _941  and  _942
REMARK  444  A    between atoms: _942  and  _943
REMARK  445  A    between atoms: _942  and  _945
REMARK  446  A    between atoms: _948  and  _949
REMARK  447  A    between atoms: _949  and  _950
REMARK  448  A    between atoms: _952  and  _953
REMARK  449  A    between atoms: _953  and  _954
REMARK  450  A    between atoms: _953  and  _956
REMARK  451  A    between atoms: _956  and  _957
REMARK  452  A    between atoms: _963  and  _964
REMARK  453  A    between atoms: _964  and  _965
REMARK  454  A    between atoms: _964  and  _967
REMARK  455  A    between atoms: _967  and  _968
REMARK  456  A    between atoms: _975  and  _976
REMARK  457  A    between atoms: _976  and  _977
REMARK  458  A    between atoms: _976  and  _979
REMARK  459  A    between atoms: _981  and  _982
REMARK  460  A    between atoms: _982  and  _983
REMARK  461  A    between atoms: _986  and  _987
REMARK  462  A    between atoms: _987  and  _988
REMARK  463  A    between atoms: _987  and  _990
REMARK  464  A    between atoms: _990  and  _991
REMARK  465  A    between atoms: _998  and  _999
REMARK  466  A    between atoms: _999  and  _1000
REMARK  467  A    between atoms: _999  and  _1002
REMARK  468  A    between atoms: _1002  and  _1003
REMARK  469  A    between atoms: _1006  and  _1007
REMARK  470  A    between atoms: _1007  and  _1008
REMARK  471  A    between atoms: _1007  and  _1010
REMARK  472  A    between atoms: _1013  and  _1014
REMARK  473  A    between atoms: _1014  and  _1015
REMARK  474  A    between atoms: _1018  and  _1019
REMARK  475  A    between atoms: _1019  and  _1020
REMARK  476  A    between atoms: _1019  and  _1022
REMARK  477  A    between atoms: _1023  and  _1024
REMARK  478  A    between atoms: _1027  and  _1028
REMARK  479  A    between atoms: _1028  and  _1029
REMARK  480  A    between atoms: _1028  and  _1031
REMARK  481  A    between atoms: _1031  and  _1032
REMARK  482  A    between atoms: _1032  and  _1033
REMARK  483  A    between atoms: _1033  and  _1034
REMARK  484  A    between atoms: _1036  and  _1037
REMARK  485  A    between atoms: _1037  and  _1038
REMARK  486  A    between atoms: _1037  and  _1040
REMARK  487  A    between atoms: _1043  and  _1044
REMARK  488  A    between atoms: _1044  and  _1045
REMARK  489  A    between atoms: _1044  and  _1047
REMARK  490  A    between atoms: _1050  and  _1051
REMARK  491  A    between atoms: _1051  and  _1052
REMARK  492  A    between atoms: _1051  and  _1054
REMARK  493  A    between atoms: _1057  and  _1058
REMARK  494  A    between atoms: _1058  and  _1059
REMARK  495  A    between atoms: _1058  and  _1061
REMARK  496  A    between atoms: _1061  and  _1062
REMARK  497  A    between atoms: _1065  and  _1066
REMARK  498  A    between atoms: _1066  and  _1067
REMARK  499  A    between atoms: _1066  and  _1069
REMARK  500  A    between atoms: _1072  and  _1073
REMARK  501  A    between atoms: _1073  and  _1074
REMARK  502  A    between atoms: _1073  and  _1076
REMARK  503  A    between atoms: _1076  and  _1077
REMARK  504  A    between atoms: _1077  and  _1078
REMARK  505  A    between atoms: _1078  and  _1079
REMARK  506  A    between atoms: _1081  and  _1082
REMARK  507  A    between atoms: _1082  and  _1083
REMARK  508  A    between atoms: _1082  and  _1085
REMARK  509  A    between atoms: _1085  and  _1086
REMARK  510  A    between atoms: _1091  and  _1092
REMARK  511  A    between atoms: _1092  and  _1093
REMARK  512  A    between atoms: _1092  and  _1095
REMARK  513  A    between atoms: _1095  and  _1096
REMARK  514  A    between atoms: _1099  and  _1100
REMARK  515  A    between atoms: _1100  and  _1101
REMARK  516  A    between atoms: _1100  and  _1103
REMARK  517  A    between atoms: _1103  and  _1104
REMARK  518  A    between atoms: _1107  and  _1108
REMARK  519  A    between atoms: _1108  and  _1111
REMARK  520  A    between atoms: _1111  and  _1112
REMARK  521  A    between atoms: _1125  and  _1127
REMARK  522  A    between atoms: _1134  and  _1135
REMARK  523  A    between atoms: _1134  and  _1137
REMARK  524  A    between atoms: _1137  and  _1138
REMARK  525  A    between atoms: _1138  and  _1139
REMARK  526  A    between atoms: _1142  and  _1143
REMARK  527  A    between atoms: _1143  and  _1144
REMARK  528  A    between atoms: _1143  and  _1146
REMARK  529  A    between atoms: _1146  and  _1147
REMARK  530  A    between atoms: _1154  and  _1155
REMARK  531  A    between atoms: _1155  and  _1156
REMARK  532  A    between atoms: _1159  and  _1160
REMARK  533  A    between atoms: _1160  and  _1161
REMARK  534  A    between atoms: _1160  and  _1163
REMARK  535  A    between atoms: _1163  and  _1164
REMARK  536  A    between atoms: _1173  and  _1174
REMARK  537  A    between atoms: _1174  and  _1175
REMARK  538  A    between atoms: _1174  and  _1177
REMARK  539  A    between atoms: _1177  and  _1178
REMARK  540  A    between atoms: _1178  and  _1179
REMARK  541  A    between atoms: _1182  and  _1183
REMARK  542  A    between atoms: _1183  and  _1184
REMARK  543  A    between atoms: _1183  and  _1186
REMARK  544  A    between atoms: _1188  and  _1189
REMARK  545  A    between atoms: _1189  and  _1190
REMARK  546  A    between atoms: _1189  and  _1192
REMARK  547  A    between atoms: _1194  and  _1195
REMARK  548  A    between atoms: _1195  and  _1196
REMARK  549  A    between atoms: _1199  and  _1200
REMARK  550  A    between atoms: _1200  and  _1201
REMARK  551  A    between atoms: _1203  and  _1204
REMARK  552  A    between atoms: _1204  and  _1205
REMARK  553  A    between atoms: _1207  and  _1208
REMARK  554  A    between atoms: _1208  and  _1209
REMARK  555  A    between atoms: _1208  and  _1211
REMARK  556  A    between atoms: _1213  and  _1214
REMARK  557  A    between atoms: _1214  and  _1215
REMARK  558  A    between atoms: _1214  and  _1217
REMARK  559  A    between atoms: _1217  and  _1218
REMARK  560  A    between atoms: _1224  and  _1225
REMARK  561  A    between atoms: _1225  and  _1226
REMARK  562  A    between atoms: _1225  and  _1228
REMARK  563  A    between atoms: _1231  and  _1232
REMARK  564  A    between atoms: _1232  and  _1233
REMARK  565  A    between atoms: _1232  and  _1235
REMARK  566  A    between atoms: _1238  and  _1239
REMARK  567  A    between atoms: _1239  and  _1240
REMARK  568  A    between atoms: _1239  and  _1242
REMARK  569  A    between atoms: _1242  and  _1243
REMARK  570  A    between atoms: _1243  and  _1244
REMARK  571  A    between atoms: _1244  and  _1245
REMARK  572  A    between atoms: _1249  and  _1250
REMARK  573  A    between atoms: _1250  and  _1251
REMARK  574  A    between atoms: _1250  and  _1253
REMARK  575  A    between atoms: _1256  and  _1257
REMARK  576  A    between atoms: _1257  and  _1258
REMARK  577  A    between atoms: _1257  and  _1260
REMARK  578  A    between atoms: _1260  and  _1261
REMARK  579  A    between atoms: _1264  and  _1265
REMARK  580  A    between atoms: _1265  and  _1266
REMARK  581  A    between atoms: _1265  and  _1268
REMARK  582  A    between atoms: _1271  and  _1272
REMARK  583  A    between atoms: _1272  and  _1273
REMARK  584  A    between atoms: _1275  and  _1276
REMARK  585  A    between atoms: _1276  and  _1277
REMARK  586  A    between atoms: _1276  and  _1279
REMARK  587  A    between atoms: _1279  and  _1280
REMARK  588  A    between atoms: _1280  and  _1281
REMARK  589  A    between atoms: _1285  and  _1286
REMARK  590  A    between atoms: _1291  and  _1293
REMARK  591  A    between atoms: _1298  and  _1299
REMARK  592  A    between atoms: _1299  and  _1301
REMARK  593  A    between atoms: _1300  and  _1301
REMARK  594  A    between atoms: _1304  and  _1305
REMARK  595  A    between atoms: _1305  and  _1306
REMARK  596  A    between atoms: _1308  and  _1309
REMARK  597  A    between atoms: _1309  and  _1310
REMARK  598  A    between atoms: _1309  and  _1312
REMARK  599  A    between atoms: _1312  and  _1313
REMARK  600  A    between atoms: _1313  and  _1314
REMARK  601  A    between atoms: _1314  and  _1315
REMARK  602  A    between atoms: _1319  and  _1320
REMARK  603  A    between atoms: _1320  and  _1321
REMARK  604  A    between atoms: _1323  and  _1324
REMARK  605  A    between atoms: _1324  and  _1325
REMARK  606  A    between atoms: _1324  and  _1327
REMARK  607  A    between atoms: _1330  and  _1331
REMARK  608  A    between atoms: _1331  and  _1332
REMARK  609  A    between atoms: _1331  and  _1334
REMARK  610  A    between atoms: _1334  and  _1335
REMARK  611  A    between atoms: _1335  and  _1336
REMARK  612  A    between atoms: _1336  and  _1337
REMARK  613  A    between atoms: _1339  and  _1340
REMARK  614  A    between atoms: _1340  and  _1341
REMARK  615  A    between atoms: _1340  and  _1343
REMARK  616  A    between atoms: _1346  and  _1347
REMARK  617  A    between atoms: _1347  and  _1348
REMARK  618  A    between atoms: _1347  and  _1350
REMARK  619  A    between atoms: _1350  and  _1351
REMARK  620  A    between atoms: _1354  and  _1355
REMARK  621  A    between atoms: _1355  and  _1356
REMARK  622  A    between atoms: _1355  and  _1358
REMARK  623  A    between atoms: _1358  and  _1359
REMARK  624  A    between atoms: _1362  and  _1363
REMARK  625  A    between atoms: _1363  and  _1364
REMARK  626  A    between atoms: _1363  and  _1366
REMARK  627  A    between atoms: _1366  and  _1367
REMARK  628  A    between atoms: _1372  and  _1373
REMARK  629  A    between atoms: _1373  and  _1374
REMARK  630  A    between atoms: _1373  and  _1376
REMARK  631  A    between atoms: _1376  and  _1377
REMARK  632  A    between atoms: _1380  and  _1381
REMARK  633  A    between atoms: _1381  and  _1382
REMARK  634  A    between atoms: _1381  and  _1384
REMARK  635  A    between atoms: _1384  and  _1385
REMARK  636  A    between atoms: _1385  and  _1386
REMARK  637  A    between atoms: _1386  and  _1387
REMARK  638  A    between atoms: _1389  and  _1390
REMARK  639  A    between atoms: _1390  and  _1391
REMARK  640  A    between atoms: _1390  and  _1393
REMARK  641  A    between atoms: _1393  and  _1394
REMARK  642  A    between atoms: _1394  and  _1395
REMARK  643  A    between atoms: _1398  and  _1399
REMARK  644  A    between atoms: _1399  and  _1400
REMARK  645  A    between atoms: _1399  and  _1402
REMARK  646  A    between atoms: _1402  and  _1403
REMARK  647  A    between atoms: _1406  and  _1407
REMARK  648  A    between atoms: _1407  and  _1408
REMARK  649  A    between atoms: _1407  and  _1410
REMARK  650  A    between atoms: _1410  and  _1411
REMARK  651  A    between atoms: _1411  and  _1412
REMARK  652  A    between atoms: _1415  and  _1416
REMARK  653  A    between atoms: _1416  and  _1417
REMARK  654  A    between atoms: _1416  and  _1419
REMARK  655  A    between atoms: _1422  and  _1423
REMARK  656  A    between atoms: _1423  and  _1424
REMARK  657  A    between atoms: _1423  and  _1426
REMARK  658  A    between atoms: _1426  and  _1427
REMARK  659  A    between atoms: _1427  and  _1428
REMARK  660  A    between atoms: _1431  and  _1432
REMARK  661  A    between atoms: _1432  and  _1433
REMARK  662  A    between atoms: _1432  and  _1435
REMARK  663  A    between atoms: _1435  and  _1436
REMARK  664  A    between atoms: _1443  and  _1444
REMARK  665  A    between atoms: _1444  and  _1445
REMARK  666  A    between atoms: _1444  and  _1447
REMARK  667  A    between atoms: _1447  and  _1448
REMARK  668  A    between atoms: _1451  and  _1452
REMARK  669  A    between atoms: _1452  and  _1453
REMARK  670  A    between atoms: _1452  and  _1455
REMARK  671  A    between atoms: _1455  and  _1456
REMARK  672  A    between atoms: _1456  and  _1457
REMARK  673  A    between atoms: _1460  and  _1461
REMARK  674  A    between atoms: _1461  and  _1462
REMARK  675  A    between atoms: _1461  and  _1464
REMARK  676  A    between atoms: _1464  and  _1465
REMARK  677  A    between atoms: _1465  and  _1466
REMARK  678  A    between atoms: _1469  and  _1470
REMARK  679  A    between atoms: _1470  and  _1471
REMARK  680  A    between atoms: _1470  and  _1473
REMARK  681  A    between atoms: _1473  and  _1474
REMARK  682  A    between atoms: _1474  and  _1475
REMARK  683  A    between atoms: _1475  and  _1476
REMARK  684  A    between atoms: _1480  and  _1481
REMARK  685  A    between atoms: _1481  and  _1482
REMARK  686  A    between atoms: _1481  and  _1484
REMARK  687  A    between atoms: _1484  and  _1485
REMARK  688  A    between atoms: _1485  and  _1486
REMARK  689  A    between atoms: _1486  and  _1487
REMARK  690  A    between atoms: _1491  and  _1492
REMARK  691  A    between atoms: _1492  and  _1493
REMARK  692  A    between atoms: _1492  and  _1495
REMARK  693  A    between atoms: _1495  and  _1496
REMARK  694  A    between atoms: _1499  and  _1500
REMARK  695  A    between atoms: _1500  and  _1501
REMARK  696  A    between atoms: _1500  and  _1503
REMARK  697  A    between atoms: _1503  and  _1504
REMARK  698  A    between atoms: _1504  and  _1505
REMARK  699  A    between atoms: _1505  and  _1506
REMARK  700  A    between atoms: _1508  and  _1509
REMARK  701  A    between atoms: _1509  and  _1510
REMARK  702  A    between atoms: _1509  and  _1512
REMARK  703  A    between atoms: _1512  and  _1513
REMARK  704  A    between atoms: _1513  and  _1514
REMARK  705  A    between atoms: _1517  and  _1518
REMARK  706  A    between atoms: _1518  and  _1519
REMARK  707  A    between atoms: _1518  and  _1521
REMARK  708  A    between atoms: _1521  and  _1522
REMARK  709  A    between atoms: _1525  and  _1526
REMARK  710  A    between atoms: _1526  and  _1527
REMARK  711  A    between atoms: _1526  and  _1529
REMARK  712  A    between atoms: _1532  and  _1533
REMARK  713  A    between atoms: _1533  and  _1534
REMARK  714  A    between atoms: _1533  and  _1536
REMARK  715  A    between atoms: _1536  and  _1537
REMARK  716  A    between atoms: _1537  and  _1538
REMARK  717  A    between atoms: _1538  and  _1539
REMARK  718  A    between atoms: _1541  and  _1542
REMARK  719  A    between atoms: _1542  and  _1543
REMARK  720  A    between atoms: _1542  and  _1545
REMARK  721  A    between atoms: _1545  and  _1546
REMARK  722  A    between atoms: _1546  and  _1547
REMARK  723  A    between atoms: _1547  and  _1548
REMARK  724  A    between atoms: _1550  and  _1551
REMARK  725  A    between atoms: _1551  and  _1552
REMARK  726  A    between atoms: _1551  and  _1554
REMARK  727  A    between atoms: _1554  and  _1555
REMARK  728  A    between atoms: _1560  and  _1561
REMARK  729  A    between atoms: _1561  and  _1562
REMARK  730  A    between atoms: _1561  and  _1564
REMARK  731  A    between atoms: _1566  and  _1567
REMARK  732  A    between atoms: _1567  and  _1568
REMARK  733  A    between atoms: _1567  and  _1570
REMARK  734  A    between atoms: _1570  and  _1571
REMARK  735  A    between atoms: _1571  and  _1572
REMARK  736  A    between atoms: _1575  and  _1576
REMARK  737  A    between atoms: _1576  and  _1577
REMARK  738  A    between atoms: _1576  and  _1579
REMARK  739  A    between atoms: _1579  and  _1580
REMARK  740  A    between atoms: _1586  and  _1587
REMARK  741  A    between atoms: _1587  and  _1588
REMARK  742  A    between atoms: _1587  and  _1590
REMARK  743  A    between atoms: _1590  and  _1591
REMARK  744  A    between atoms: _1594  and  _1595
REMARK  745  A    between atoms: _1595  and  _1596
REMARK  746  A    between atoms: _1598  and  _1599
REMARK  747  A    between atoms: _1599  and  _1600
REMARK  748  A    between atoms: _1599  and  _1602
REMARK  749  A    between atoms: _1602  and  _1603
REMARK  750  A    between atoms: _1611  and  _1612
REMARK  751  A    between atoms: _1617  and  _1618
REMARK  752  A    between atoms: _1618  and  _1619
REMARK  753  A    between atoms: _1618  and  _1621
REMARK  754  A    between atoms: _1621  and  _1622
REMARK  755  A    between atoms: _1625  and  _1626
REMARK  756  A    between atoms: _1626  and  _1627
REMARK  757  A    between atoms: _1626  and  _1629
REMARK  758  A    between atoms: _1632  and  _1633
REMARK  759  A    between atoms: _1633  and  _1634
REMARK  760  A    between atoms: _1633  and  _1636
REMARK  761  A    between atoms: _1636  and  _1637
REMARK  762  A    between atoms: _1640  and  _1641
REMARK  763  A    between atoms: _1641  and  _1642
REMARK  764  A    between atoms: _1641  and  _1644
REMARK  765  A    between atoms: _1644  and  _1645
REMARK  766  A    between atoms: _1651  and  _1652
REMARK  767  A    between atoms: _1652  and  _1653
REMARK  768  A    between atoms: _1652  and  _1655
REMARK  769  A    between atoms: _1658  and  _1659
REMARK  770  A    between atoms: _1659  and  _1660
REMARK  771  A    between atoms: _1659  and  _1662
REMARK  772  A    between atoms: _1662  and  _1663
REMARK  773  A    between atoms: _1663  and  _1664
REMARK  774  A    between atoms: _1667  and  _1668
REMARK  775  A    between atoms: _1668  and  _1669
REMARK  776  A    between atoms: _1668  and  _1671
REMARK  777  A    between atoms: _1671  and  _1672
REMARK  778  A    between atoms: _1672  and  _1673
REMARK  779  A    between atoms: _1673  and  _1674
REMARK                            x       y       z     vdW  Elec       q    Type
REMARK                         _______ _______ _______ _____ _____    ______ ____
ROOT
ATOM      1  N   UNL     1      -6.824  11.802  33.929  0.00  0.00    -0.130 NA
ATOM      2  C   UNL     1      -6.332  10.586  33.348  0.00  0.00    +0.130 C 
ENDROOT
TORSDOF 0
REMARK  Name = /Users/mlugowska/PhD/ML_residence_time_prediction/protein_files/5NYH_protein.pdb
REMARK  779 active torsions:
REMARK  status: ('A' for Active; 'I' for Inactive)
REMARK    1  A    between atoms: _2  and  _3
REMARK    2  A    between atoms: _2  and  _5
REMARK    3  A    between atoms: _5  and  _6
REMARK    4  A    between atoms: _6  and  _7
REMARK    5  A    between atoms: _10  and  _11
REMARK    6  A    between atoms: _11  and  _12
REMARK    7  A    between atoms: _11  and  _14
REMARK    8  A    between atoms: _17  and  _18
REMARK    9  A    between atoms: _18  and  _19
REMARK   10  A    between atoms: _18  and  _21
REMARK   11  A    between atoms: _21  and  _22
REMARK   12  A    between atoms: _22  and  _23
REMARK   13  A    between atoms: _26  and  _27
REMARK   14  A    between atoms: _27  and  _28
REMARK   15  A    between atoms: _27  and  _30
REMARK   16  A    between atoms: _33  and  _34
REMARK   17  A    between atoms: _34  and  _35
REMARK   18  A    between atoms: _34  and  _37
REMARK   19  A    between atoms: _37  and  _38
REMARK   20  A    between atoms: _44  and  _45
REMARK   21  A    between atoms: _45  and  _46
REMARK   22  A    between atoms: _49  and  _50
REMARK   23  A    between atoms: _50  and  _51
REMARK   24  A    between atoms: _50  and  _53
REMARK   25  A    between atoms: _53  and  _54
REMARK   26  A    between atoms: _60  and  _61
REMARK   27  A    between atoms: _61  and  _62
REMARK   28  A    between atoms: _61  and  _64
REMARK   29  A    between atoms: _64  and  _65
REMARK   30  A    between atoms: _65  and  _66
REMARK   31  A    between atoms: _69  and  _70
REMARK   32  A    between atoms: _70  and  _71
REMARK   33  A    between atoms: _74  and  _75
REMARK   34  A    between atoms: _75  and  _76
REMARK   35  A    between atoms: _75  and  _78
REMARK   36  A    between atoms: _78  and  _79
REMARK   37  A    between atoms: _79  and  _80
REMARK   38  A    between atoms: _83  and  _84
REMARK   39  A    between atoms: _84  and  _85
REMARK   40  A    between atoms: _84  and  _87
REMARK   41  A    between atoms: _87  and  _88
REMARK   42  A    between atoms: _91  and  _92
REMARK   43  A    between atoms: _92  and  _93
REMARK   44  A    between atoms: _96  and  _97
REMARK   45  A    between atoms: _97  and  _98
REMARK   46  A    between atoms: _97  and  _100
REMARK   47  A    between atoms: _100  and  _101
REMARK   48  A    between atoms: _101  and  _102
REMARK   49  A    between atoms: _105  and  _106
REMARK   50  A    between atoms: _106  and  _107
REMARK   51  A    between atoms: _106  and  _109
REMARK   52  A    between atoms: _109  and  _110
REMARK   53  A    between atoms: _113  and  _114
REMARK   54  A    between atoms: _114  and  _115
REMARK   55  A    between atoms: _114  and  _117
REMARK   56  A    between atoms: _117  and  _118
REMARK   57  A    between atoms: _118  and  _119
REMARK   58  A    between atoms: _121  and  _122
REMARK   59  A    between atoms: _122  and  _123
REMARK   60  A    between atoms: _122  and  _125
REMARK   61  A    between atoms: _127  and  _128
REMARK   62  A    between atoms: _128  and  _129
REMARK   63  A    between atoms: _128  and  _131
REMARK   64  A    between atoms: _131  and  _132
REMARK   65  A    between atoms: _135  and  _136
REMARK   66  A    between atoms: _136  and  _137
REMARK   67  A    between atoms: _136  and  _139
REMARK   68  A    between atoms: _139  and  _140
REMARK   69  A    between atoms: _143  and  _144
REMARK   70  A    between atoms: _144  and  _145
REMARK   71  A    between atoms: _144  and  _147
REMARK   72  A    between atoms: _147  and  _148
REMARK   73  A    between atoms: _151  and  _152
REMARK   74  A    between atoms: _152  and  _153
REMARK   75  A    between atoms: _152  and  _155
REMARK   76  A    between atoms: _155  and  _156
REMARK   77  A    between atoms: _159  and  _160
REMARK   78  A    between atoms: _160  and  _161
REMARK   79  A    between atoms: _160  and  _163
REMARK   80  A    between atoms: _166  and  _167
REMARK   81  A    between atoms: _167  and  _168
REMARK   82  A    between atoms: _167  and  _170
REMARK   83  A    between atoms: _170  and  _171
REMARK   84  A    between atoms: _177  and  _178
REMARK   85  A    between atoms: _178  and  _179
REMARK   86  A    between atoms: _178  and  _181
REMARK   87  A    between atoms: _181  and  _182
REMARK   88  A    between atoms: _189  and  _190
REMARK   89  A    between atoms: _190  and  _191
REMARK   90  A    between atoms: _190  and  _193
REMARK   91  A    between atoms: _195  and  _196
REMARK   92  A    between atoms: _196  and  _197
REMARK   93  A    between atoms: _196  and  _199
REMARK   94  A    between atoms: _199  and  _200
REMARK   95  A    between atoms: _203  and  _204
REMARK   96  A    between atoms: _204  and  _205
REMARK   97  A    between atoms: _204  and  _207
REMARK   98  A    between atoms: _207  and  _208
REMARK   99  A    between atoms: _208  and  _209
REMARK  100  A    between atoms: _209  and  _210
REMARK  101  A    between atoms: _212  and  _213
REMARK  102  A    between atoms: _213  and  _214
REMARK  103  A    between atoms: _213  and  _216
REMARK  104  A    between atoms: _216  and  _217
REMARK  105  A    between atoms: _217  and  _218
REMARK  106  A    between atoms: _221  and  _222
REMARK  107  A    between atoms: _222  and  _223
REMARK  108  A    between atoms: _222  and  _225
REMARK  109  A    between atoms: _225  and  _226
REMARK  110  A    between atoms: _229  and  _230
REMARK  111  A    between atoms: _230  and  _231
REMARK  112  A    between atoms: _230  and  _233
REMARK  113  A    between atoms: _233  and  _234
REMARK  114  A    between atoms: _240  and  _241
REMARK  115  A    between atoms: _241  and  _242
REMARK  116  A    between atoms: _241  and  _244
REMARK  117  A    between atoms: _244  and  _245
REMARK  118  A    between atoms: _248  and  _249
REMARK  119  A    between atoms: _249  and  _250
REMARK  120  A    between atoms: _249  and  _252
REMARK  121  A    between atoms: _252  and  _253
REMARK  122  A    between atoms: _253  and  _254
REMARK  123  A    between atoms: _254  and  _255
REMARK  124  A    between atoms: _259  and  _260
REMARK  125  A    between atoms: _260  and  _261
REMARK  126  A    between atoms: _260  and  _263
REMARK  127  A    between atoms: _263  and  _264
REMARK  128  A    between atoms: _264  and  _265
REMARK  129  A    between atoms: _268  and  _269
REMARK  130  A    between atoms: _269  and  _270
REMARK  131  A    between atoms: _269  and  _272
REMARK  132  A    between atoms: _272  and  _273
REMARK  133  A    between atoms: _276  and  _277
REMARK  134  A    between atoms: _277  and  _278
REMARK  135  A    between atoms: _277  and  _280
REMARK  136  A    between atoms: _280  and  _281
REMARK  137  A    between atoms: _284  and  _285
REMARK  138  A    between atoms: _285  and  _286
REMARK  139  A    between atoms: _285  and  _288
REMARK  140  A    between atoms: _290  and  _291
REMARK  141  A    between atoms: _291  and  _292
REMARK  142  A    between atoms: _291  and  _294
REMARK  143  A    between atoms: _294  and  _295
REMARK  144  A    between atoms: _298  and  _299
REMARK  145  A    between atoms: _299  and  _300
REMARK  146  A    between atoms: _299  and  _302
REMARK  147  A    between atoms: _304  and  _305
REMARK  148  A    between atoms: _305  and  _306
REMARK  149  A    between atoms: _305  and  _308
REMARK  150  A    between atoms: _310  and  _311
REMARK  151  A    between atoms: _311  and  _312
REMARK  152  A    between atoms: _311  and  _314
REMARK  153  A    between atoms: _314  and  _315
REMARK  154  A    between atoms: _318  and  _319
REMARK  155  A    between atoms: _319  and  _320
REMARK  156  A    between atoms: _323  and  _324
REMARK  157  A    between atoms: _324  and  _325
REMARK  158  A    between atoms: _324  and  _327
REMARK  159  A    between atoms: _327  and  _328
REMARK  160  A    between atoms: _331  and  _332
REMARK  161  A    between atoms: _332  and  _333
REMARK  162  A    between atoms: _332  and  _335
REMARK  163  A    between atoms: _335  and  _336
REMARK  164  A    between atoms: _339  and  _340
REMARK  165  A    between atoms: _340  and  _341
REMARK  166  A    between atoms: _340  and  _343
REMARK  167  A    between atoms: _343  and  _344
REMARK  168  A    between atoms: _344  and  _345
REMARK  169  A    between atoms: _345  and  _346
REMARK  170  A    between atoms: _348  and  _349
REMARK  171  A    between atoms: _349  and  _350
REMARK  172  A    between atoms: _349  and  _352
REMARK  173  A    between atoms: _352  and  _353
REMARK  174  A    between atoms: _356  and  _357
REMARK  175  A    between atoms: _357  and  _358
REMARK  176  A    between atoms: _357  and  _360
REMARK  177  A    between atoms: _360  and  _361
REMARK  178  A    between atoms: _361  and  _362
REMARK  179  A    between atoms: _362  and  _363
REMARK  180  A    between atoms: _367  and  _368
REMARK  181  A    between atoms: _368  and  _369
REMARK  182  A    between atoms: _368  and  _371
REMARK  183  A    between atoms: _371  and  _372
REMARK  184  A    between atoms: _379  and  _380
REMARK  185  A    between atoms: _380  and  _381
REMARK  186  A    between atoms: _380  and  _383
REMARK  187  A    between atoms: _383  and  _384
REMARK  188  A    between atoms: _384  and  _385
REMARK  189  A    between atoms: _388  and  _389
REMARK  190  A    between atoms: _389  and  _390
REMARK  191  A    between atoms: _389  and  _392
REMARK  192  A    between atoms: _394  and  _395
REMARK  193  A    between atoms: _395  and  _396
REMARK  194  A    between atoms: _395  and  _398
REMARK  195  A    between atoms: _398  and  _399
REMARK  196  A    between atoms: _402  and  _403
REMARK  197  A    between atoms: _403  and  _404
REMARK  198  A    between atoms: _403  and  _406
REMARK  199  A    between atoms: _409  and  _410
REMARK  200  A    between atoms: _410  and  _411
REMARK  201  A    between atoms: _410  and  _413
REMARK  202  A    between atoms: _413  and  _414
REMARK  203  A    between atoms: _418  and  _419
REMARK  204  A    between atoms: _424  and  _425
REMARK  205  A    between atoms: _425  and  _426
REMARK  206  A    between atoms: _425  and  _428
REMARK  207  A    between atoms: _430  and  _431
REMARK  208  A    between atoms: _431  and  _432
REMARK  209  A    between atoms: _431  and  _434
REMARK  210  A    between atoms: _434  and  _435
REMARK  211  A    between atoms: _435  and  _436
REMARK  212  A    between atoms: _436  and  _437
REMARK  213  A    between atoms: _439  and  _440
REMARK  214  A    between atoms: _440  and  _441
REMARK  215  A    between atoms: _440  and  _443
REMARK  216  A    between atoms: _443  and  _444
REMARK  217  A    between atoms: _447  and  _448
REMARK  218  A    between atoms: _448  and  _449
REMARK  219  A    between atoms: _448  and  _451
REMARK  220  A    between atoms: _451  and  _452
REMARK  221  A    between atoms: _455  and  _456
REMARK  222  A    between atoms: _456  and  _457
REMARK  223  A    between atoms: _456  and  _459
REMARK  224  A    between atoms: _461  and  _462
REMARK  225  A    between atoms: _462  and  _463
REMARK  226  A    between atoms: _465  and  _466
REMARK  227  A    between atoms: _466  and  _467
REMARK  228  A    between atoms: _466  and  _469
REMARK  229  A    between atoms: _469  and  _470
REMARK  230  A    between atoms: _470  and  _471
REMARK  231  A    between atoms: _471  and  _472
REMARK  232  A    between atoms: _474  and  _475
REMARK  233  A    between atoms: _475  and  _476
REMARK  234  A    between atoms: _475  and  _478
REMARK  235  A    between atoms: _478  and  _479
REMARK  236  A    between atoms: _479  and  _480
REMARK  237  A    between atoms: _483  and  _484
REMARK  238  A    between atoms: _484  and  _485
REMARK  239  A    between atoms: _484  and  _487
REMARK  240  A    between atoms: _487  and  _488
REMARK  241  A    between atoms: _491  and  _492
REMARK  242  A    between atoms: _492  and  _493
REMARK  243  A    between atoms: _492  and  _495
REMARK  244  A    between atoms: _495  and  _496
REMARK  245  A    between atoms: _501  and  _502
REMARK  246  A    between atoms: _502  and  _503
REMARK  247  A    between atoms: _502  and  _505
REMARK  248  A    between atoms: _505  and  _506
REMARK  249  A    between atoms: _509  and  _510
REMARK  250  A    between atoms: _510  and  _511
REMARK  251  A    between atoms: _510  and  _513
REMARK  252  A    between atoms: _513  and  _514
REMARK  253  A    between atoms: _517  and  _518
REMARK  254  A    between atoms: _518  and  _519
REMARK  255  A    between atoms: _518  and  _521
REMARK  256  A    between atoms: _521  and  _522
REMARK  257  A    between atoms: _525  and  _526
REMARK  258  A    between atoms: _526  and  _527
REMARK  259  A    between atoms: _526  and  _529
REMARK  260  A    between atoms: _529  and  _530
REMARK  261  A    between atoms: _534  and  _535
REMARK  262  A    between atoms: _540  and  _541
REMARK  263  A    between atoms: _541  and  _542
REMARK  264  A    between atoms: _541  and  _544
REMARK  265  A    between atoms: _544  and  _545
REMARK  266  A    between atoms: _548  and  _549
REMARK  267  A    between atoms: _549  and  _552
REMARK  268  A    between atoms: _552  and  _553
REMARK  269  A    between atoms: _553  and  _554
REMARK  270  A    between atoms: _554  and  _555
REMARK  271  A    between atoms: _568  and  _569
REMARK  272  A    between atoms: _576  and  _577
REMARK  273  A    between atoms: _576  and  _579
REMARK  274  A    between atoms: _579  and  _580
REMARK  275  A    between atoms: _583  and  _584
REMARK  276  A    between atoms: _584  and  _585
REMARK  277  A    between atoms: _584  and  _587
REMARK  278  A    between atoms: _587  and  _588
REMARK  279  A    between atoms: _588  and  _589
REMARK  280  A    between atoms: _589  and  _590
REMARK  281  A    between atoms: _594  and  _595
REMARK  282  A    between atoms: _595  and  _596
REMARK  283  A    between atoms: _595  and  _598
REMARK  284  A    between atoms: _601  and  _602
REMARK  285  A    between atoms: _602  and  _603
REMARK  286  A    between atoms: _602  and  _605
REMARK  287  A    between atoms: _605  and  _606
REMARK  288  A    between atoms: _609  and  _610
REMARK  289  A    between atoms: _610  and  _611
REMARK  290  A    between atoms: _610  and  _613
REMARK  291  A    between atoms: _616  and  _617
REMARK  292  A    between atoms: _617  and  _618
REMARK  293  A    between atoms: _617  and  _620
REMARK  294  A    between atoms: _620  and  _621
REMARK  295  A    between atoms: _624  and  _625
REMARK  296  A    between atoms: _625  and  _626
REMARK  297  A    between atoms: _625  and  _628
REMARK  298  A    between atoms: _631  and  _632
REMARK  299  A    between atoms: _632  and  _633
REMARK  300  A    between atoms: _632  and  _635
REMARK  301  A    between atoms: _635  and  _636
REMARK  302  A    between atoms: _639  and  _640
REMARK  303  A    between atoms: _640  and  _641
REMARK  304  A    between atoms: _640  and  _643
REMARK  305  A    between atoms: _646  and  _647
REMARK  306  A    between atoms: _647  and  _648
REMARK  307  A    between atoms: _650  and  _651
REMARK  308  A    between atoms: _651  and  _652
REMARK  309  A    between atoms: _651  and  _654
REMARK  310  A    between atoms: _654  and  _655
REMARK  311  A    between atoms: _658  and  _659
REMARK  312  A    between atoms: _659  and  _660
REMARK  313  A    between atoms: _662  and  _663
REMARK  314  A    between atoms: _663  and  _664
REMARK  315  A    between atoms: _663  and  _666
REMARK  316  A    between atoms: _666  and  _667
REMARK  317  A    between atoms: _667  and  _668
REMARK  318  A    between atoms: _670  and  _671
REMARK  319  A    between atoms: _671  and  _672
REMARK  320  A    between atoms: _671  and  _674
REMARK  321  A    between atoms: _677  and  _678
REMARK  322  A    between atoms: _678  and  _679
REMARK  323  A    between atoms: _678  and  _681
REMARK  324  A    between atoms: _681  and  _682
REMARK  325  A    between atoms: _682  and  _683
REMARK  326  A    between atoms: _683  and  _684
REMARK  327  A    between atoms: _686  and  _687
REMARK  328  A    between atoms: _687  and  _688
REMARK  329  A    between atoms: _691  and  _692
REMARK  330  A    between atoms: _692  and  _693
REMARK  331  A    between atoms: _692  and  _695
REMARK  332  A    between atoms: _695  and  _696
REMARK  333  A    between atoms: _699  and  _700
REMARK  334  A    between atoms: _700  and  _701
REMARK  335  A    between atoms: _700  and  _703
REMARK  336  A    between atoms: _703  and  _704
REMARK  337  A    between atoms: _707  and  _708
REMARK  338  A    between atoms: _708  and  _709
REMARK  339  A    between atoms: _708  and  _711
REMARK  340  A    between atoms: _711  and  _712
REMARK  341  A    between atoms: _715  and  _716
REMARK  342  A    between atoms: _716  and  _717
REMARK  343  A    between atoms: _716  and  _719
REMARK  344  A    between atoms: _719  and  _720
REMARK  345  A    between atoms: _723  and  _724
REMARK  346  A    between atoms: _724  and  _725
REMARK  347  A    between atoms: _724  and  _727
REMARK  348  A    between atoms: _727  and  _728
REMARK  349  A    between atoms: _731  and  _732
REMARK  350  A    between atoms: _732  and  _733
REMARK  351  A    between atoms: _732  and  _735
REMARK  352  A    between atoms: _735  and  _736
REMARK  353  A    between atoms: _739  and  _740
REMARK  354  A    between atoms: _740  and  _741
REMARK  355  A    between atoms: _743  and  _744
REMARK  356  A    between atoms: _744  and  _745
REMARK  357  A    between atoms: _744  and  _747
REMARK  358  A    between atoms: _750  and  _751
REMARK  359  A    between atoms: _751  and  _752
REMARK  360  A    between atoms: _751  and  _754
REMARK  361  A    between atoms: _754  and  _755
REMARK  362  A    between atoms: _758  and  _759
REMARK  363  A    between atoms: _759  and  _760
REMARK  364  A    between atoms: _763  and  _764
REMARK  365  A    between atoms: _764  and  _765
REMARK  366  A    between atoms: _764  and  _767
REMARK  367  A    between atoms: _767  and  _768
REMARK  368  A    between atoms: _768  and  _769
REMARK  369  A    between atoms: _769  and  _770
REMARK  370  A    between atoms: _772  and  _773
REMARK  371  A    between atoms: _773  and  _774
REMARK  372  A    between atoms: _773  and  _776
REMARK  373  A    between atoms: _778  and  _779
REMARK  374  A    between atoms: _779  and  _780
REMARK  375  A    between atoms: _782  and  _783
REMARK  376  A    between atoms: _783  and  _784
REMARK  377  A    between atoms: _783  and  _786
REMARK  378  A    between atoms: _789  and  _790
REMARK  379  A    between atoms: _790  and  _791
REMARK  380  A    between atoms: _790  and  _793
REMARK  381  A    between atoms: _793  and  _794
REMARK  382  A    between atoms: _794  and  _795
REMARK  383  A    between atoms: _795  and  _796
REMARK  384  A    between atoms: _798  and  _799
REMARK  385  A    between atoms: _799  and  _800
REMARK  386  A    between atoms: _803  and  _804
REMARK  387  A    between atoms: _804  and  _805
REMARK  388  A    between atoms: _804  and  _807
REMARK  389  A    between atoms: _807  and  _808
REMARK  390  A    between atoms: _814  and  _815
REMARK  391  A    between atoms: _815  and  _816
REMARK  392  A    between atoms: _815  and  _818
REMARK  393  A    between atoms: _818  and  _819
REMARK  394  A    between atoms: _819  and  _820
REMARK  395  A    between atoms: _822  and  _823
REMARK  396  A    between atoms: _823  and  _824
REMARK  397  A    between atoms: _823  and  _826
REMARK  398  A    between atoms: _826  and  _827
REMARK  399  A    between atoms: _827  and  _828
REMARK  400  A    between atoms: _831  and  _832
REMARK  401  A    between atoms: _832  and  _833
REMARK  402  A    between atoms: _836  and  _837
REMARK  403  A    between atoms: _837  and  _838
REMARK  404  A    between atoms: _837  and  _840
REMARK  405  A    between atoms: _840  and  _841
REMARK  406  A    between atoms: _844  and  _845
REMARK  407  A    between atoms: _845  and  _846
REMARK  408  A    between atoms: _845  and  _848
REMARK  409  A    between atoms: _848  and  _849
REMARK  410  A    between atoms: _849  and  _850
REMARK  411  A    between atoms: _853  and  _854
REMARK  412  A    between atoms: _854  and  _855
REMARK  413  A    between atoms: _858  and  _859
REMARK  414  A    between atoms: _859  and  _860
REMARK  415  A    between atoms: _862  and  _863
REMARK  416  A    between atoms: _863  and  _864
REMARK  417  A    between atoms: _867  and  _868
REMARK  418  A    between atoms: _868  and  _869
REMARK  419  A    between atoms: _868  and  _871
REMARK  420  A    between atoms: _871  and  _872
REMARK  421  A    between atoms: _875  and  _876
REMARK  422  A    between atoms: _876  and  _877
REMARK  423  A    between atoms: _876  and  _879
REMARK  424  A    between atoms: _879  and  _880
REMARK  425  A    between atoms: _883  and  _884
REMARK  426  A    between atoms: _884  and  _887
REMARK  427  A    between atoms: _906  and  _907
REMARK  428  A    between atoms: _906  and  _909
REMARK  429  A    between atoms: _909  and  _910
REMARK  430  A    between atoms: _913  and  _914
REMARK  431  A    between atoms: _914  and  _915
REMARK  432  A    between atoms: _917  and  _918
REMARK  433  A    between atoms: _918  and  _919
REMARK  434  A    between atoms: _918  and  _921
REMARK  435  A    between atoms: _921  and  _922
REMARK  436  A    between atoms: _922  and  _923
REMARK  437  A    between atoms: _926  and  _927
REMARK  438  A    between atoms: _927  and  _928
REMARK  439  A    between atoms: _927  and  _930
REMARK  440  A    between atoms: _930  and  _931
REMARK  441  A    between atoms: _937  and  _938
REMARK  442  A    between atoms: _938  and  _939
REMARK  443  A    between atoms: _941  and  _942
REMARK  444  A    between atoms: _942  and  _943
REMARK  445  A    between atoms: _942  and  _945
REMARK  446  A    between atoms: _948  and  _949
REMARK  447  A    between atoms: _949  and  _950
REMARK  448  A    between atoms: _952  and  _953
REMARK  449  A    between atoms: _953  and  _954
REMARK  450  A    between atoms: _953  and  _956
REMARK  451  A    between atoms: _956  and  _957
REMARK  452  A    between atoms: _963  and  _964
REMARK  453  A    between atoms: _964  and  _965
REMARK  454  A    between atoms: _964  and  _967
REMARK  455  A    between atoms: _967  and  _968
REMARK  456  A    between atoms: _975  and  _976
REMARK  457  A    between atoms: _976  and  _977
REMARK  458  A    between atoms: _976  and  _979
REMARK  459  A    between atoms: _981  and  _982
REMARK  460  A    between atoms: _982  and  _983
REMARK  461  A    between atoms: _986  and  _987
REMARK  462  A    between atoms: _987  and  _988
REMARK  463  A    between atoms: _987  and  _990
REMARK  464  A    between atoms: _990  and  _991
REMARK  465  A    between atoms: _998  and  _999
REMARK  466  A    between atoms: _999  and  _1000
REMARK  467  A    between atoms: _999  and  _1002
REMARK  468  A    between atoms: _1002  and  _1003
REMARK  469  A    between atoms: _1006  and  _1007
REMARK  470  A    between atoms: _1007  and  _1008
REMARK  471  A    between atoms: _1007  and  _1010
REMARK  472  A    between atoms: _1013  and  _1014
REMARK  473  A    between atoms: _1014  and  _1015
REMARK  474  A    between atoms: _1018  and  _1019
REMARK  475  A    between atoms: _1019  and  _1020
REMARK  476  A    between atoms: _1019  and  _1022
REMARK  477  A    between atoms: _1023  and  _1024
REMARK  478  A    between atoms: _1027  and  _1028
REMARK  479  A    between atoms: _1028  and  _1029
REMARK  480  A    between atoms: _1028  and  _1031
REMARK  481  A    between atoms: _1031  and  _1032
REMARK  482  A    between atoms: _1032  and  _1033
REMARK  483  A    between atoms: _1033  and  _1034
REMARK  484  A    between atoms: _1036  and  _1037
REMARK  485  A    between atoms: _1037  and  _1038
REMARK  486  A    between atoms: _1037  and  _1040
REMARK  487  A    between atoms: _1043  and  _1044
REMARK  488  A    between atoms: _1044  and  _1045
REMARK  489  A    between atoms: _1044  and  _1047
REMARK  490  A    between atoms: _1050  and  _1051
REMARK  491  A    between atoms: _1051  and  _1052
REMARK  492  A    between atoms: _1051  and  _1054
REMARK  493  A    between atoms: _1057  and  _1058
REMARK  494  A    between atoms: _1058  and  _1059
REMARK  495  A    between atoms: _1058  and  _1061
REMARK  496  A    between atoms: _1061  and  _1062
REMARK  497  A    between atoms: _1065  and  _1066
REMARK  498  A    between atoms: _1066  and  _1067
REMARK  499  A    between atoms: _1066  and  _1069
REMARK  500  A    between atoms: _1072  and  _1073
REMARK  501  A    between atoms: _1073  and  _1074
REMARK  502  A    between atoms: _1073  and  _1076
REMARK  503  A    between atoms: _1076  and  _1077
REMARK  504  A    between atoms: _1077  and  _1078
REMARK  505  A    between atoms: _1078  and  _1079
REMARK  506  A    between atoms: _1081  and  _1082
REMARK  507  A    between atoms: _1082  and  _1083
REMARK  508  A    between atoms: _1082  and  _1085
REMARK  509  A    between atoms: _1085  and  _1086
REMARK  510  A    between atoms: _1091  and  _1092
REMARK  511  A    between atoms: _1092  and  _1093
REMARK  512  A    between atoms: _1092  and  _1095
REMARK  513  A    between atoms: _1095  and  _1096
REMARK  514  A    between atoms: _1099  and  _1100
REMARK  515  A    between atoms: _1100  and  _1101
REMARK  516  A    between atoms: _1100  and  _1103
REMARK  517  A    between atoms: _1103  and  _1104
REMARK  518  A    between atoms: _1107  and  _1108
REMARK  519  A    between atoms: _1108  and  _1111
REMARK  520  A    between atoms: _1111  and  _1112
REMARK  521  A    between atoms: _1125  and  _1127
REMARK  522  A    between atoms: _1134  and  _1135
REMARK  523  A    between atoms: _1134  and  _1137
REMARK  524  A    between atoms: _1137  and  _1138
REMARK  525  A    between atoms: _1138  and  _1139
REMARK  526  A    between atoms: _1142  and  _1143
REMARK  527  A    between atoms: _1143  and  _1144
REMARK  528  A    between atoms: _1143  and  _1146
REMARK  529  A    between atoms: _1146  and  _1147
REMARK  530  A    between atoms: _1154  and  _1155
REMARK  531  A    between atoms: _1155  and  _1156
REMARK  532  A    between atoms: _1159  and  _1160
REMARK  533  A    between atoms: _1160  and  _1161
REMARK  534  A    between atoms: _1160  and  _1163
REMARK  535  A    between atoms: _1163  and  _1164
REMARK  536  A    between atoms: _1173  and  _1174
REMARK  537  A    between atoms: _1174  and  _1175
REMARK  538  A    between atoms: _1174  and  _1177
REMARK  539  A    between atoms: _1177  and  _1178
REMARK  540  A    between atoms: _1178  and  _1179
REMARK  541  A    between atoms: _1182  and  _1183
REMARK  542  A    between atoms: _1183  and  _1184
REMARK  543  A    between atoms: _1183  and  _1186
REMARK  544  A    between atoms: _1188  and  _1189
REMARK  545  A    between atoms: _1189  and  _1190
REMARK  546  A    between atoms: _1189  and  _1192
REMARK  547  A    between atoms: _1194  and  _1195
REMARK  548  A    between atoms: _1195  and  _1196
REMARK  549  A    between atoms: _1199  and  _1200
REMARK  550  A    between atoms: _1200  and  _1201
REMARK  551  A    between atoms: _1203  and  _1204
REMARK  552  A    between atoms: _1204  and  _1205
REMARK  553  A    between atoms: _1207  and  _1208
REMARK  554  A    between atoms: _1208  and  _1209
REMARK  555  A    between atoms: _1208  and  _1211
REMARK  556  A    between atoms: _1213  and  _1214
REMARK  557  A    between atoms: _1214  and  _1215
REMARK  558  A    between atoms: _1214  and  _1217
REMARK  559  A    between atoms: _1217  and  _1218
REMARK  560  A    between atoms: _1224  and  _1225
REMARK  561  A    between atoms: _1225  and  _1226
REMARK  562  A    between atoms: _1225  and  _1228
REMARK  563  A    between atoms: _1231  and  _1232
REMARK  564  A    between atoms: _1232  and  _1233
REMARK  565  A    between atoms: _1232  and  _1235
REMARK  566  A    between atoms: _1238  and  _1239
REMARK  567  A    between atoms: _1239  and  _1240
REMARK  568  A    between atoms: _1239  and  _1242
REMARK  569  A    between atoms: _1242  and  _1243
REMARK  570  A    between atoms: _1243  and  _1244
REMARK  571  A    between atoms: _1244  and  _1245
REMARK  572  A    between atoms: _1249  and  _1250
REMARK  573  A    between atoms: _1250  and  _1251
REMARK  574  A    between atoms: _1250  and  _1253
REMARK  575  A    between atoms: _1256  and  _1257
REMARK  576  A    between atoms: _1257  and  _1258
REMARK  577  A    between atoms: _1257  and  _1260
REMARK  578  A    between atoms: _1260  and  _1261
REMARK  579  A    between atoms: _1264  and  _1265
REMARK  580  A    between atoms: _1265  and  _1266
REMARK  581  A    between atoms: _1265  and  _1268
REMARK  582  A    between atoms: _1271  and  _1272
REMARK  583  A    between atoms: _1272  and  _1273
REMARK  584  A    between atoms: _1275  and  _1276
REMARK  585  A    between atoms: _1276  and  _1277
REMARK  586  A    between atoms: _1276  and  _1279
REMARK  587  A    between atoms: _1279  and  _1280
REMARK  588  A    between atoms: _1280  and  _1281
REMARK  589  A    between atoms: _1285  and  _1286
REMARK  590  A    between atoms: _1291  and  _1293
REMARK  591  A    between atoms: _1298  and  _1299
REMARK  592  A    between atoms: _1299  and  _1301
REMARK  593  A    between atoms: _1300  and  _1301
REMARK  594  A    between atoms: _1304  and  _1305
REMARK  595  A    between atoms: _1305  and  _1306
REMARK  596  A    between atoms: _1308  and  _1309
REMARK  597  A    between atoms: _1309  and  _1310
REMARK  598  A    between atoms: _1309  and  _1312
REMARK  599  A    between atoms: _1312  and  _1313
REMARK  600  A    between atoms: _1313  and  _1314
REMARK  601  A    between atoms: _1314  and  _1315
REMARK  602  A    between atoms: _1319  and  _1320
REMARK  603  A    between atoms: _1320  and  _1321
REMARK  604  A    between atoms: _1323  and  _1324
REMARK  605  A    between atoms: _1324  and  _1325
REMARK  606  A    between atoms: _1324  and  _1327
REMARK  607  A    between atoms: _1330  and  _1331
REMARK  608  A    between atoms: _1331  and  _1332
REMARK  609  A    between atoms: _1331  and  _1334
REMARK  610  A    between atoms: _1334  and  _1335
REMARK  611  A    between atoms: _1335  and  _1336
REMARK  612  A    between atoms: _1336  and  _1337
REMARK  613  A    between atoms: _1339  and  _1340
REMARK  614  A    between atoms: _1340  and  _1341
REMARK  615  A    between atoms: _1340  and  _1343
REMARK  616  A    between atoms: _1346  and  _1347
REMARK  617  A    between atoms: _1347  and  _1348
REMARK  618  A    between atoms: _1347  and  _1350
REMARK  619  A    between atoms: _1350  and  _1351
REMARK  620  A    between atoms: _1354  and  _1355
REMARK  621  A    between atoms: _1355  and  _1356
REMARK  622  A    between atoms: _1355  and  _1358
REMARK  623  A    between atoms: _1358  and  _1359
REMARK  624  A    between atoms: _1362  and  _1363
REMARK  625  A    between atoms: _1363  and  _1364
REMARK  626  A    between atoms: _1363  and  _1366
REMARK  627  A    between atoms: _1366  and  _1367
REMARK  628  A    between atoms: _1372  and  _1373
REMARK  629  A    between atoms: _1373  and  _1374
REMARK  630  A    between atoms: _1373  and  _1376
REMARK  631  A    between atoms: _1376  and  _1377
REMARK  632  A    between atoms: _1380  and  _1381
REMARK  633  A    between atoms: _1381  and  _1382
REMARK  634  A    between atoms: _1381  and  _1384
REMARK  635  A    between atoms: _1384  and  _1385
REMARK  636  A    between atoms: _1385  and  _1386
REMARK  637  A    between atoms: _1386  and  _1387
REMARK  638  A    between atoms: _1389  and  _1390
REMARK  639  A    between atoms: _1390  and  _1391
REMARK  640  A    between atoms: _1390  and  _1393
REMARK  641  A    between atoms: _1393  and  _1394
REMARK  642  A    between atoms: _1394  and  _1395
REMARK  643  A    between atoms: _1398  and  _1399
REMARK  644  A    between atoms: _1399  and  _1400
REMARK  645  A    between atoms: _1399  and  _1402
REMARK  646  A    between atoms: _1402  and  _1403
REMARK  647  A    between atoms: _1406  and  _1407
REMARK  648  A    between atoms: _1407  and  _1408
REMARK  649  A    between atoms: _1407  and  _1410
REMARK  650  A    between atoms: _1410  and  _1411
REMARK  651  A    between atoms: _1411  and  _1412
REMARK  652  A    between atoms: _1415  and  _1416
REMARK  653  A    between atoms: _1416  and  _1417
REMARK  654  A    between atoms: _1416  and  _1419
REMARK  655  A    between atoms: _1422  and  _1423
REMARK  656  A    between atoms: _1423  and  _1424
REMARK  657  A    between atoms: _1423  and  _1426
REMARK  658  A    between atoms: _1426  and  _1427
REMARK  659  A    between atoms: _1427  and  _1428
REMARK  660  A    between atoms: _1431  and  _1432
REMARK  661  A    between atoms: _1432  and  _1433
REMARK  662  A    between atoms: _1432  and  _1435
REMARK  663  A    between atoms: _1435  and  _1436
REMARK  664  A    between atoms: _1443  and  _1444
REMARK  665  A    between atoms: _1444  and  _1445
REMARK  666  A    between atoms: _1444  and  _1447
REMARK  667  A    between atoms: _1447  and  _1448
REMARK  668  A    between atoms: _1451  and  _1452
REMARK  669  A    between atoms: _1452  and  _1453
REMARK  670  A    between atoms: _1452  and  _1455
REMARK  671  A    between atoms: _1455  and  _1456
REMARK  672  A    between atoms: _1456  and  _1457
REMARK  673  A    between atoms: _1460  and  _1461
REMARK  674  A    between atoms: _1461  and  _1462
REMARK  675  A    between atoms: _1461  and  _1464
REMARK  676  A    between atoms: _1464  and  _1465
REMARK  677  A    between atoms: _1465  and  _1466
REMARK  678  A    between atoms: _1469  and  _1470
REMARK  679  A    between atoms: _1470  and  _1471
REMARK  680  A    between atoms: _1470  and  _1473
REMARK  681  A    between atoms: _1473  and  _1474
REMARK  682  A    between atoms: _1474  and  _1475
REMARK  683  A    between atoms: _1475  and  _1476
REMARK  684  A    between atoms: _1480  and  _1481
REMARK  685  A    between atoms: _1481  and  _1482
REMARK  686  A    between atoms: _1481  and  _1484
REMARK  687  A    between atoms: _1484  and  _1485
REMARK  688  A    between atoms: _1485  and  _1486
REMARK  689  A    between atoms: _1486  and  _1487
REMARK  690  A    between atoms: _1491  and  _1492
REMARK  691  A    between atoms: _1492  and  _1493
REMARK  692  A    between atoms: _1492  and  _1495
REMARK  693  A    between atoms: _1495  and  _1496
REMARK  694  A    between atoms: _1499  and  _1500
REMARK  695  A    between atoms: _1500  and  _1501
REMARK  696  A    between atoms: _1500  and  _1503
REMARK  697  A    between atoms: _1503  and  _1504
REMARK  698  A    between atoms: _1504  and  _1505
REMARK  699  A    between atoms: _1505  and  _1506
REMARK  700  A    between atoms: _1508  and  _1509
REMARK  701  A    between atoms: _1509  and  _1510
REMARK  702  A    between atoms: _1509  and  _1512
REMARK  703  A    between atoms: _1512  and  _1513
REMARK  704  A    between atoms: _1513  and  _1514
REMARK  705  A    between atoms: _1517  and  _1518
REMARK  706  A    between atoms: _1518  and  _1519
REMARK  707  A    between atoms: _1518  and  _1521
REMARK  708  A    between atoms: _1521  and  _1522
REMARK  709  A    between atoms: _1525  and  _1526
REMARK  710  A    between atoms: _1526  and  _1527
REMARK  711  A    between atoms: _1526  and  _1529
REMARK  712  A    between atoms: _1532  and  _1533
REMARK  713  A    between atoms: _1533  and  _1534
REMARK  714  A    between atoms: _1533  and  _1536
REMARK  715  A    between atoms: _1536  and  _1537
REMARK  716  A    between atoms: _1537  and  _1538
REMARK  717  A    between atoms: _1538  and  _1539
REMARK  718  A    between atoms: _1541  and  _1542
REMARK  719  A    between atoms: _1542  and  _1543
REMARK  720  A    between atoms: _1542  and  _1545
REMARK  721  A    between atoms: _1545  and  _1546
REMARK  722  A    between atoms: _1546  and  _1547
REMARK  723  A    between atoms: _1547  and  _1548
REMARK  724  A    between atoms: _1550  and  _1551
REMARK  725  A    between atoms: _1551  and  _1552
REMARK  726  A    between atoms: _1551  and  _1554
REMARK  727  A    between atoms: _1554  and  _1555
REMARK  728  A    between atoms: _1560  and  _1561
REMARK  729  A    between atoms: _1561  and  _1562
REMARK  730  A    between atoms: _1561  and  _1564
REMARK  731  A    between atoms: _1566  and  _1567
REMARK  732  A    between atoms: _1567  and  _1568
REMARK  733  A    between atoms: _1567  and  _1570
REMARK  734  A    between atoms: _1570  and  _1571
REMARK  735  A    between atoms: _1571  and  _1572
REMARK  736  A    between atoms: _1575  and  _1576
REMARK  737  A    between atoms: _1576  and  _1577
REMARK  738  A    between atoms: _1576  and  _1579
REMARK  739  A    between atoms: _1579  and  _1580
REMARK  740  A    between atoms: _1586  and  _1587
REMARK  741  A    between atoms: _1587  and  _1588
REMARK  742  A    between atoms: _1587  and  _1590
REMARK  743  A    between atoms: _1590  and  _1591
REMARK  744  A    between atoms: _1594  and  _1595
REMARK  745  A    between atoms: _1595  and  _1596
REMARK  746  A    between atoms: _1598  and  _1599
REMARK  747  A    between atoms: _1599  and  _1600
REMARK  748  A    between atoms: _1599  and  _1602
REMARK  749  A    between atoms: _1602  and  _1603
REMARK  750  A    between atoms: _1611  and  _1612
REMARK  751  A    between atoms: _1617  and  _1618
REMARK  752  A    between atoms: _1618  and  _1619
REMARK  753  A    between atoms: _1618  and  _1621
REMARK  754  A    between atoms: _1621  and  _1622
REMARK  755  A    between atoms: _1625  and  _1626
REMARK  756  A    between atoms: _1626  and  _1627
REMARK  757  A    between atoms: _1626  and  _1629
REMARK  758  A    between atoms: _1632  and  _1633
REMARK  759  A    between atoms: _1633  and  _1634
REMARK  760  A    between atoms: _1633  and  _1636
REMARK  761  A    between atoms: _1636  and  _1637
REMARK  762  A    between atoms: _1640  and  _1641
REMARK  763  A    between atoms: _1641  and  _1642
REMARK  764  A    between atoms: _1641  and  _1644
REMARK  765  A    between atoms: _1644  and  _1645
REMARK  766  A    between atoms: _1651  and  _1652
REMARK  767  A    between atoms: _1652  and  _1653
REMARK  768  A    between atoms: _1652  and  _1655
REMARK  769  A    between atoms: _1658  and  _1659
REMARK  770  A    between atoms: _1659  and  _1660
REMARK  771  A    between atoms: _1659  and  _1662
REMARK  772  A    between atoms: _1662  and  _1663
REMARK  773  A    between atoms: _1663  and  _1664
REMARK  774  A    between atoms: _1667  and  _1668
REMARK  775  A    between atoms: _1668  and  _1669
REMARK  776  A    between atoms: _1668  and  _1671
REMARK  777  A    between atoms: _1671  and  _1672
REMARK  778  A    between atoms: _1672  and  _1673
REMARK  779  A    between atoms: _1673  and  _1674
REMARK                            x       y       z     vdW  Elec       q    Type
REMARK                         _______ _______ _______ _____ _____    ______ ____
ROOT
ATOM      1  C   UNL     1      -6.319  10.573  33.343  0.00  0.00    +0.000 C 
ATOM      2  C   UNL     1      -7.359  10.004  32.394  0.00  0.00    +0.000 C 
ENDROOT
TORSDOF 0
REMARK  Name = /Users/mlugowska/PhD/ML_residence_time_prediction/protein_files/5NYH_protein.pdb
REMARK  779 active torsions:
REMARK  status: ('A' for Active; 'I' for Inactive)
REMARK    1  A    between atoms: _2  and  _3
REMARK    2  A    between atoms: _2  and  _5
REMARK    3  A    between atoms: _5  and  _6
REMARK    4  A    between atoms: _6  and  _7
REMARK    5  A    between atoms: _10  and  _11
REMARK    6  A    between atoms: _11  and  _12
REMARK    7  A    between atoms: _11  and  _14
REMARK    8  A    between atoms: _17  and  _18
REMARK    9  A    between atoms: _18  and  _19
REMARK   10  A    between atoms: _18  and  _21
REMARK   11  A    between atoms: _21  and  _22
REMARK   12  A    between atoms: _22  and  _23
REMARK   13  A    between atoms: _26  and  _27
REMARK   14  A    between atoms: _27  and  _28
REMARK   15  A    between atoms: _27  and  _30
REMARK   16  A    between atoms: _33  and  _34
REMARK   17  A    between atoms: _34  and  _35
REMARK   18  A    between atoms: _34  and  _37
REMARK   19  A    between atoms: _37  and  _38
REMARK   20  A    between atoms: _44  and  _45
REMARK   21  A    between atoms: _45  and  _46
REMARK   22  A    between atoms: _49  and  _50
REMARK   23  A    between atoms: _50  and  _51
REMARK   24  A    between atoms: _50  and  _53
REMARK   25  A    between atoms: _53  and  _54
REMARK   26  A    between atoms: _60  and  _61
REMARK   27  A    between atoms: _61  and  _62
REMARK   28  A    between atoms: _61  and  _64
REMARK   29  A    between atoms: _64  and  _65
REMARK   30  A    between atoms: _65  and  _66
REMARK   31  A    between atoms: _69  and  _70
REMARK   32  A    between atoms: _70  and  _71
REMARK   33  A    between atoms: _74  and  _75
REMARK   34  A    between atoms: _75  and  _76
REMARK   35  A    between atoms: _75  and  _78
REMARK   36  A    between atoms: _78  and  _79
REMARK   37  A    between atoms: _79  and  _80
REMARK   38  A    between atoms: _83  and  _84
REMARK   39  A    between atoms: _84  and  _85
REMARK   40  A    between atoms: _84  and  _87
REMARK   41  A    between atoms: _87  and  _88
REMARK   42  A    between atoms: _91  and  _92
REMARK   43  A    between atoms: _92  and  _93
REMARK   44  A    between atoms: _96  and  _97
REMARK   45  A    between atoms: _97  and  _98
REMARK   46  A    between atoms: _97  and  _100
REMARK   47  A    between atoms: _100  and  _101
REMARK   48  A    between atoms: _101  and  _102
REMARK   49  A    between atoms: _105  and  _106
REMARK   50  A    between atoms: _106  and  _107
REMARK   51  A    between atoms: _106  and  _109
REMARK   52  A    between atoms: _109  and  _110
REMARK   53  A    between atoms: _113  and  _114
REMARK   54  A    between atoms: _114  and  _115
REMARK   55  A    between atoms: _114  and  _117
REMARK   56  A    between atoms: _117  and  _118
REMARK   57  A    between atoms: _118  and  _119
REMARK   58  A    between atoms: _121  and  _122
REMARK   59  A    between atoms: _122  and  _123
REMARK   60  A    between atoms: _122  and  _125
REMARK   61  A    between atoms: _127  and  _128
REMARK   62  A    between atoms: _128  and  _129
REMARK   63  A    between atoms: _128  and  _131
REMARK   64  A    between atoms: _131  and  _132
REMARK   65  A    between atoms: _135  and  _136
REMARK   66  A    between atoms: _136  and  _137
REMARK   67  A    between atoms: _136  and  _139
REMARK   68  A    between atoms: _139  and  _140
REMARK   69  A    between atoms: _143  and  _144
REMARK   70  A    between atoms: _144  and  _145
REMARK   71  A    between atoms: _144  and  _147
REMARK   72  A    between atoms: _147  and  _148
REMARK   73  A    between atoms: _151  and  _152
REMARK   74  A    between atoms: _152  and  _153
REMARK   75  A    between atoms: _152  and  _155
REMARK   76  A    between atoms: _155  and  _156
REMARK   77  A    between atoms: _159  and  _160
REMARK   78  A    between atoms: _160  and  _161
REMARK   79  A    between atoms: _160  and  _163
REMARK   80  A    between atoms: _166  and  _167
REMARK   81  A    between atoms: _167  and  _168
REMARK   82  A    between atoms: _167  and  _170
REMARK   83  A    between atoms: _170  and  _171
REMARK   84  A    between atoms: _177  and  _178
REMARK   85  A    between atoms: _178  and  _179
REMARK   86  A    between atoms: _178  and  _181
REMARK   87  A    between atoms: _181  and  _182
REMARK   88  A    between atoms: _189  and  _190
REMARK   89  A    between atoms: _190  and  _191
REMARK   90  A    between atoms: _190  and  _193
REMARK   91  A    between atoms: _195  and  _196
REMARK   92  A    between atoms: _196  and  _197
REMARK   93  A    between atoms: _196  and  _199
REMARK   94  A    between atoms: _199  and  _200
REMARK   95  A    between atoms: _203  and  _204
REMARK   96  A    between atoms: _204  and  _205
REMARK   97  A    between atoms: _204  and  _207
REMARK   98  A    between atoms: _207  and  _208
REMARK   99  A    between atoms: _208  and  _209
REMARK  100  A    between atoms: _209  and  _210
REMARK  101  A    between atoms: _212  and  _213
REMARK  102  A    between atoms: _213  and  _214
REMARK  103  A    between atoms: _213  and  _216
REMARK  104  A    between atoms: _216  and  _217
REMARK  105  A    between atoms: _217  and  _218
REMARK  106  A    between atoms: _221  and  _222
REMARK  107  A    between atoms: _222  and  _223
REMARK  108  A    between atoms: _222  and  _225
REMARK  109  A    between atoms: _225  and  _226
REMARK  110  A    between atoms: _229  and  _230
REMARK  111  A    between atoms: _230  and  _231
REMARK  112  A    between atoms: _230  and  _233
REMARK  113  A    between atoms: _233  and  _234
REMARK  114  A    between atoms: _240  and  _241
REMARK  115  A    between atoms: _241  and  _242
REMARK  116  A    between atoms: _241  and  _244
REMARK  117  A    between atoms: _244  and  _245
REMARK  118  A    between atoms: _248  and  _249
REMARK  119  A    between atoms: _249  and  _250
REMARK  120  A    between atoms: _249  and  _252
REMARK  121  A    between atoms: _252  and  _253
REMARK  122  A    between atoms: _253  and  _254
REMARK  123  A    between atoms: _254  and  _255
REMARK  124  A    between atoms: _259  and  _260
REMARK  125  A    between atoms: _260  and  _261
REMARK  126  A    between atoms: _260  and  _263
REMARK  127  A    between atoms: _263  and  _264
REMARK  128  A    between atoms: _264  and  _265
REMARK  129  A    between atoms: _268  and  _269
REMARK  130  A    between atoms: _269  and  _270
REMARK  131  A    between atoms: _269  and  _272
REMARK  132  A    between atoms: _272  and  _273
REMARK  133  A    between atoms: _276  and  _277
REMARK  134  A    between atoms: _277  and  _278
REMARK  135  A    between atoms: _277  and  _280
REMARK  136  A    between atoms: _280  and  _281
REMARK  137  A    between atoms: _284  and  _285
REMARK  138  A    between atoms: _285  and  _286
REMARK  139  A    between atoms: _285  and  _288
REMARK  140  A    between atoms: _290  and  _291
REMARK  141  A    between atoms: _291  and  _292
REMARK  142  A    between atoms: _291  and  _294
REMARK  143  A    between atoms: _294  and  _295
REMARK  144  A    between atoms: _298  and  _299
REMARK  145  A    between atoms: _299  and  _300
REMARK  146  A    between atoms: _299  and  _302
REMARK  147  A    between atoms: _304  and  _305
REMARK  148  A    between atoms: _305  and  _306
REMARK  149  A    between atoms: _305  and  _308
REMARK  150  A    between atoms: _310  and  _311
REMARK  151  A    between atoms: _311  and  _312
REMARK  152  A    between atoms: _311  and  _314
REMARK  153  A    between atoms: _314  and  _315
REMARK  154  A    between atoms: _318  and  _319
REMARK  155  A    between atoms: _319  and  _320
REMARK  156  A    between atoms: _323  and  _324
REMARK  157  A    between atoms: _324  and  _325
REMARK  158  A    between atoms: _324  and  _327
REMARK  159  A    between atoms: _327  and  _328
REMARK  160  A    between atoms: _331  and  _332
REMARK  161  A    between atoms: _332  and  _333
REMARK  162  A    between atoms: _332  and  _335
REMARK  163  A    between atoms: _335  and  _336
REMARK  164  A    between atoms: _339  and  _340
REMARK  165  A    between atoms: _340  and  _341
REMARK  166  A    between atoms: _340  and  _343
REMARK  167  A    between atoms: _343  and  _344
REMARK  168  A    between atoms: _344  and  _345
REMARK  169  A    between atoms: _345  and  _346
REMARK  170  A    between atoms: _348  and  _349
REMARK  171  A    between atoms: _349  and  _350
REMARK  172  A    between atoms: _349  and  _352
REMARK  173  A    between atoms: _352  and  _353
REMARK  174  A    between atoms: _356  and  _357
REMARK  175  A    between atoms: _357  and  _358
REMARK  176  A    between atoms: _357  and  _360
REMARK  177  A    between atoms: _360  and  _361
REMARK  178  A    between atoms: _361  and  _362
REMARK  179  A    between atoms: _362  and  _363
REMARK  180  A    between atoms: _367  and  _368
REMARK  181  A    between atoms: _368  and  _369
REMARK  182  A    between atoms: _368  and  _371
REMARK  183  A    between atoms: _371  and  _372
REMARK  184  A    between atoms: _379  and  _380
REMARK  185  A    between atoms: _380  and  _381
REMARK  186  A    between atoms: _380  and  _383
REMARK  187  A    between atoms: _383  and  _384
REMARK  188  A    between atoms: _384  and  _385
REMARK  189  A    between atoms: _388  and  _389
REMARK  190  A    between atoms: _389  and  _390
REMARK  191  A    between atoms: _389  and  _392
REMARK  192  A    between atoms: _394  and  _395
REMARK  193  A    between atoms: _395  and  _396
REMARK  194  A    between atoms: _395  and  _398
REMARK  195  A    between atoms: _398  and  _399
REMARK  196  A    between atoms: _402  and  _403
REMARK  197  A    between atoms: _403  and  _404
REMARK  198  A    between atoms: _403  and  _406
REMARK  199  A    between atoms: _409  and  _410
REMARK  200  A    between atoms: _410  and  _411
REMARK  201  A    between atoms: _410  and  _413
REMARK  202  A    between atoms: _413  and  _414
REMARK  203  A    between atoms: _418  and  _419
REMARK  204  A    between atoms: _424  and  _425
REMARK  205  A    between atoms: _425  and  _426
REMARK  206  A    between atoms: _425  and  _428
REMARK  207  A    between atoms: _430  and  _431
REMARK  208  A    between atoms: _431  and  _432
REMARK  209  A    between atoms: _431  and  _434
REMARK  210  A    between atoms: _434  and  _435
REMARK  211  A    between atoms: _435  and  _436
REMARK  212  A    between atoms: _436  and  _437
REMARK  213  A    between atoms: _439  and  _440
REMARK  214  A    between atoms: _440  and  _441
REMARK  215  A    between atoms: _440  and  _443
REMARK  216  A    between atoms: _443  and  _444
REMARK  217  A    between atoms: _447  and  _448
REMARK  218  A    between atoms: _448  and  _449
REMARK  219  A    between atoms: _448  and  _451
REMARK  220  A    between atoms: _451  and  _452
REMARK  221  A    between atoms: _455  and  _456
REMARK  222  A    between atoms: _456  and  _457
REMARK  223  A    between atoms: _456  and  _459
REMARK  224  A    between atoms: _461  and  _462
REMARK  225  A    between atoms: _462  and  _463
REMARK  226  A    between atoms: _465  and  _466
REMARK  227  A    between atoms: _466  and  _467
REMARK  228  A    between atoms: _466  and  _469
REMARK  229  A    between atoms: _469  and  _470
REMARK  230  A    between atoms: _470  and  _471
REMARK  231  A    between atoms: _471  and  _472
REMARK  232  A    between atoms: _474  and  _475
REMARK  233  A    between atoms: _475  and  _476
REMARK  234  A    between atoms: _475  and  _478
REMARK  235  A    between atoms: _478  and  _479
REMARK  236  A    between atoms: _479  and  _480
REMARK  237  A    between atoms: _483  and  _484
REMARK  238  A    between atoms: _484  and  _485
REMARK  239  A    between atoms: _484  and  _487
REMARK  240  A    between atoms: _487  and  _488
REMARK  241  A    between atoms: _491  and  _492
REMARK  242  A    between atoms: _492  and  _493
REMARK  243  A    between atoms: _492  and  _495
REMARK  244  A    between atoms: _495  and  _496
REMARK  245  A    between atoms: _501  and  _502
REMARK  246  A    between atoms: _502  and  _503
REMARK  247  A    between atoms: _502  and  _505
REMARK  248  A    between atoms: _505  and  _506
REMARK  249  A    between atoms: _509  and  _510
REMARK  250  A    between atoms: _510  and  _511
REMARK  251  A    between atoms: _510  and  _513
REMARK  252  A    between atoms: _513  and  _514
REMARK  253  A    between atoms: _517  and  _518
REMARK  254  A    between atoms: _518  and  _519
REMARK  255  A    between atoms: _518  and  _521
REMARK  256  A    between atoms: _521  and  _522
REMARK  257  A    between atoms: _525  and  _526
REMARK  258  A    between atoms: _526  and  _527
REMARK  259  A    between atoms: _526  and  _529
REMARK  260  A    between atoms: _529  and  _530
REMARK  261  A    between atoms: _534  and  _535
REMARK  262  A    between atoms: _540  and  _541
REMARK  263  A    between atoms: _541  and  _542
REMARK  264  A    between atoms: _541  and  _544
REMARK  265  A    between atoms: _544  and  _545
REMARK  266  A    between atoms: _548  and  _549
REMARK  267  A    between atoms: _549  and  _552
REMARK  268  A    between atoms: _552  and  _553
REMARK  269  A    between atoms: _553  and  _554
REMARK  270  A    between atoms: _554  and  _555
REMARK  271  A    between atoms: _568  and  _569
REMARK  272  A    between atoms: _576  and  _577
REMARK  273  A    between atoms: _576  and  _579
REMARK  274  A    between atoms: _579  and  _580
REMARK  275  A    between atoms: _583  and  _584
REMARK  276  A    between atoms: _584  and  _585
REMARK  277  A    between atoms: _584  and  _587
REMARK  278  A    between atoms: _587  and  _588
REMARK  279  A    between atoms: _588  and  _589
REMARK  280  A    between atoms: _589  and  _590
REMARK  281  A    between atoms: _594  and  _595
REMARK  282  A    between atoms: _595  and  _596
REMARK  283  A    between atoms: _595  and  _598
REMARK  284  A    between atoms: _601  and  _602
REMARK  285  A    between atoms: _602  and  _603
REMARK  286  A    between atoms: _602  and  _605
REMARK  287  A    between atoms: _605  and  _606
REMARK  288  A    between atoms: _609  and  _610
REMARK  289  A    between atoms: _610  and  _611
REMARK  290  A    between atoms: _610  and  _613
REMARK  291  A    between atoms: _616  and  _617
REMARK  292  A    between atoms: _617  and  _618
REMARK  293  A    between atoms: _617  and  _620
REMARK  294  A    between atoms: _620  and  _621
REMARK  295  A    between atoms: _624  and  _625
REMARK  296  A    between atoms: _625  and  _626
REMARK  297  A    between atoms: _625  and  _628
REMARK  298  A    between atoms: _631  and  _632
REMARK  299  A    between atoms: _632  and  _633
REMARK  300  A    between atoms: _632  and  _635
REMARK  301  A    between atoms: _635  and  _636
REMARK  302  A    between atoms: _639  and  _640
REMARK  303  A    between atoms: _640  and  _641
REMARK  304  A    between atoms: _640  and  _643
REMARK  305  A    between atoms: _646  and  _647
REMARK  306  A    between atoms: _647  and  _648
REMARK  307  A    between atoms: _650  and  _651
REMARK  308  A    between atoms: _651  and  _652
REMARK  309  A    between atoms: _651  and  _654
REMARK  310  A    between atoms: _654  and  _655
REMARK  311  A    between atoms: _658  and  _659
REMARK  312  A    between atoms: _659  and  _660
REMARK  313  A    between atoms: _662  and  _663
REMARK  314  A    between atoms: _663  and  _664
REMARK  315  A    between atoms: _663  and  _666
REMARK  316  A    between atoms: _666  and  _667
REMARK  317  A    between atoms: _667  and  _668
REMARK  318  A    between atoms: _670  and  _671
REMARK  319  A    between atoms: _671  and  _672
REMARK  320  A    between atoms: _671  and  _674
REMARK  321  A    between atoms: _677  and  _678
REMARK  322  A    between atoms: _678  and  _679
REMARK  323  A    between atoms: _678  and  _681
REMARK  324  A    between atoms: _681  and  _682
REMARK  325  A    between atoms: _682  and  _683
REMARK  326  A    between atoms: _683  and  _684
REMARK  327  A    between atoms: _686  and  _687
REMARK  328  A    between atoms: _687  and  _688
REMARK  329  A    between atoms: _691  and  _692
REMARK  330  A    between atoms: _692  and  _693
REMARK  331  A    between atoms: _692  and  _695
REMARK  332  A    between atoms: _695  and  _696
REMARK  333  A    between atoms: _699  and  _700
REMARK  334  A    between atoms: _700  and  _701
REMARK  335  A    between atoms: _700  and  _703
REMARK  336  A    between atoms: _703  and  _704
REMARK  337  A    between atoms: _707  and  _708
REMARK  338  A    between atoms: _708  and  _709
REMARK  339  A    between atoms: _708  and  _711
REMARK  340  A    between atoms: _711  and  _712
REMARK  341  A    between atoms: _715  and  _716
REMARK  342  A    between atoms: _716  and  _717
REMARK  343  A    between atoms: _716  and  _719
REMARK  344  A    between atoms: _719  and  _720
REMARK  345  A    between atoms: _723  and  _724
REMARK  346  A    between atoms: _724  and  _725
REMARK  347  A    between atoms: _724  and  _727
REMARK  348  A    between atoms: _727  and  _728
REMARK  349  A    between atoms: _731  and  _732
REMARK  350  A    between atoms: _732  and  _733
REMARK  351  A    between atoms: _732  and  _735
REMARK  352  A    between atoms: _735  and  _736
REMARK  353  A    between atoms: _739  and  _740
REMARK  354  A    between atoms: _740  and  _741
REMARK  355  A    between atoms: _743  and  _744
REMARK  356  A    between atoms: _744  and  _745
REMARK  357  A    between atoms: _744  and  _747
REMARK  358  A    between atoms: _750  and  _751
REMARK  359  A    between atoms: _751  and  _752
REMARK  360  A    between atoms: _751  and  _754
REMARK  361  A    between atoms: _754  and  _755
REMARK  362  A    between atoms: _758  and  _759
REMARK  363  A    between atoms: _759  and  _760
REMARK  364  A    between atoms: _763  and  _764
REMARK  365  A    between atoms: _764  and  _765
REMARK  366  A    between atoms: _764  and  _767
REMARK  367  A    between atoms: _767  and  _768
REMARK  368  A    between atoms: _768  and  _769
REMARK  369  A    between atoms: _769  and  _770
REMARK  370  A    between atoms: _772  and  _773
REMARK  371  A    between atoms: _773  and  _774
REMARK  372  A    between atoms: _773  and  _776
REMARK  373  A    between atoms: _778  and  _779
REMARK  374  A    between atoms: _779  and  _780
REMARK  375  A    between atoms: _782  and  _783
REMARK  376  A    between atoms: _783  and  _784
REMARK  377  A    between atoms: _783  and  _786
REMARK  378  A    between atoms: _789  and  _790
REMARK  379  A    between atoms: _790  and  _791
REMARK  380  A    between atoms: _790  and  _793
REMARK  381  A    between atoms: _793  and  _794
REMARK  382  A    between atoms: _794  and  _795
REMARK  383  A    between atoms: _795  and  _796
REMARK  384  A    between atoms: _798  and  _799
REMARK  385  A    between atoms: _799  and  _800
REMARK  386  A    between atoms: _803  and  _804
REMARK  387  A    between atoms: _804  and  _805
REMARK  388  A    between atoms: _804  and  _807
REMARK  389  A    between atoms: _807  and  _808
REMARK  390  A    between atoms: _814  and  _815
REMARK  391  A    between atoms: _815  and  _816
REMARK  392  A    between atoms: _815  and  _818
REMARK  393  A    between atoms: _818  and  _819
REMARK  394  A    between atoms: _819  and  _820
REMARK  395  A    between atoms: _822  and  _823
REMARK  396  A    between atoms: _823  and  _824
REMARK  397  A    between atoms: _823  and  _826
REMARK  398  A    between atoms: _826  and  _827
REMARK  399  A    between atoms: _827  and  _828
REMARK  400  A    between atoms: _831  and  _832
REMARK  401  A    between atoms: _832  and  _833
REMARK  402  A    between atoms: _836  and  _837
REMARK  403  A    between atoms: _837  and  _838
REMARK  404  A    between atoms: _837  and  _840
REMARK  405  A    between atoms: _840  and  _841
REMARK  406  A    between atoms: _844  and  _845
REMARK  407  A    between atoms: _845  and  _846
REMARK  408  A    between atoms: _845  and  _848
REMARK  409  A    between atoms: _848  and  _849
REMARK  410  A    between atoms: _849  and  _850
REMARK  411  A    between atoms: _853  and  _854
REMARK  412  A    between atoms: _854  and  _855
REMARK  413  A    between atoms: _858  and  _859
REMARK  414  A    between atoms: _859  and  _860
REMARK  415  A    between atoms: _862  and  _863
REMARK  416  A    between atoms: _863  and  _864
REMARK  417  A    between atoms: _867  and  _868
REMARK  418  A    between atoms: _868  and  _869
REMARK  419  A    between atoms: _868  and  _871
REMARK  420  A    between atoms: _871  and  _872
REMARK  421  A    between atoms: _875  and  _876
REMARK  422  A    between atoms: _876  and  _877
REMARK  423  A    between atoms: _876  and  _879
REMARK  424  A    between atoms: _879  and  _880
REMARK  425  A    between atoms: _883  and  _884
REMARK  426  A    between atoms: _884  and  _887
REMARK  427  A    between atoms: _906  and  _907
REMARK  428  A    between atoms: _906  and  _909
REMARK  429  A    between atoms: _909  and  _910
REMARK  430  A    between atoms: _913  and  _914
REMARK  431  A    between atoms: _914  and  _915
REMARK  432  A    between atoms: _917  and  _918
REMARK  433  A    between atoms: _918  and  _919
REMARK  434  A    between atoms: _918  and  _921
REMARK  435  A    between atoms: _921  and  _922
REMARK  436  A    between atoms: _922  and  _923
REMARK  437  A    between atoms: _926  and  _927
REMARK  438  A    between atoms: _927  and  _928
REMARK  439  A    between atoms: _927  and  _930
REMARK  440  A    between atoms: _930  and  _931
REMARK  441  A    between atoms: _937  and  _938
REMARK  442  A    between atoms: _938  and  _939
REMARK  443  A    between atoms: _941  and  _942
REMARK  444  A    between atoms: _942  and  _943
REMARK  445  A    between atoms: _942  and  _945
REMARK  446  A    between atoms: _948  and  _949
REMARK  447  A    between atoms: _949  and  _950
REMARK  448  A    between atoms: _952  and  _953
REMARK  449  A    between atoms: _953  and  _954
REMARK  450  A    between atoms: _953  and  _956
REMARK  451  A    between atoms: _956  and  _957
REMARK  452  A    between atoms: _963  and  _964
REMARK  453  A    between atoms: _964  and  _965
REMARK  454  A    between atoms: _964  and  _967
REMARK  455  A    between atoms: _967  and  _968
REMARK  456  A    between atoms: _975  and  _976
REMARK  457  A    between atoms: _976  and  _977
REMARK  458  A    between atoms: _976  and  _979
REMARK  459  A    between atoms: _981  and  _982
REMARK  460  A    between atoms: _982  and  _983
REMARK  461  A    between atoms: _986  and  _987
REMARK  462  A    between atoms: _987  and  _988
REMARK  463  A    between atoms: _987  and  _990
REMARK  464  A    between atoms: _990  and  _991
REMARK  465  A    between atoms: _998  and  _999
REMARK  466  A    between atoms: _999  and  _1000
REMARK  467  A    between atoms: _999  and  _1002
REMARK  468  A    between atoms: _1002  and  _1003
REMARK  469  A    between atoms: _1006  and  _1007
REMARK  470  A    between atoms: _1007  and  _1008
REMARK  471  A    between atoms: _1007  and  _1010
REMARK  472  A    between atoms: _1013  and  _1014
REMARK  473  A    between atoms: _1014  and  _1015
REMARK  474  A    between atoms: _1018  and  _1019
REMARK  475  A    between atoms: _1019  and  _1020
REMARK  476  A    between atoms: _1019  and  _1022
REMARK  477  A    between atoms: _1023  and  _1024
REMARK  478  A    between atoms: _1027  and  _1028
REMARK  479  A    between atoms: _1028  and  _1029
REMARK  480  A    between atoms: _1028  and  _1031
REMARK  481  A    between atoms: _1031  and  _1032
REMARK  482  A    between atoms: _1032  and  _1033
REMARK  483  A    between atoms: _1033  and  _1034
REMARK  484  A    between atoms: _1036  and  _1037
REMARK  485  A    between atoms: _1037  and  _1038
REMARK  486  A    between atoms: _1037  and  _1040
REMARK  487  A    between atoms: _1043  and  _1044
REMARK  488  A    between atoms: _1044  and  _1045
REMARK  489  A    between atoms: _1044  and  _1047
REMARK  490  A    between atoms: _1050  and  _1051
REMARK  491  A    between atoms: _1051  and  _1052
REMARK  492  A    between atoms: _1051  and  _1054
REMARK  493  A    between atoms: _1057  and  _1058
REMARK  494  A    between atoms: _1058  and  _1059
REMARK  495  A    between atoms: _1058  and  _1061
REMARK  496  A    between atoms: _1061  and  _1062
REMARK  497  A    between atoms: _1065  and  _1066
REMARK  498  A    between atoms: _1066  and  _1067
REMARK  499  A    between atoms: _1066  and  _1069
REMARK  500  A    between atoms: _1072  and  _1073
REMARK  501  A    between atoms: _1073  and  _1074
REMARK  502  A    between atoms: _1073  and  _1076
REMARK  503  A    between atoms: _1076  and  _1077
REMARK  504  A    between atoms: _1077  and  _1078
REMARK  505  A    between atoms: _1078  and  _1079
REMARK  506  A    between atoms: _1081  and  _1082
REMARK  507  A    between atoms: _1082  and  _1083
REMARK  508  A    between atoms: _1082  and  _1085
REMARK  509  A    between atoms: _1085  and  _1086
REMARK  510  A    between atoms: _1091  and  _1092
REMARK  511  A    between atoms: _1092  and  _1093
REMARK  512  A    between atoms: _1092  and  _1095
REMARK  513  A    between atoms: _1095  and  _1096
REMARK  514  A    between atoms: _1099  and  _1100
REMARK  515  A    between atoms: _1100  and  _1101
REMARK  516  A    between atoms: _1100  and  _1103
REMARK  517  A    between atoms: _1103  and  _1104
REMARK  518  A    between atoms: _1107  and  _1108
REMARK  519  A    between atoms: _1108  and  _1111
REMARK  520  A    between atoms: _1111  and  _1112
REMARK  521  A    between atoms: _1125  and  _1127
REMARK  522  A    between atoms: _1134  and  _1135
REMARK  523  A    between atoms: _1134  and  _1137
REMARK  524  A    between atoms: _1137  and  _1138
REMARK  525  A    between atoms: _1138  and  _1139
REMARK  526  A    between atoms: _1142  and  _1143
REMARK  527  A    between atoms: _1143  and  _1144
REMARK  528  A    between atoms: _1143  and  _1146
REMARK  529  A    between atoms: _1146  and  _1147
REMARK  530  A    between atoms: _1154  and  _1155
REMARK  531  A    between atoms: _1155  and  _1156
REMARK  532  A    between atoms: _1159  and  _1160
REMARK  533  A    between atoms: _1160  and  _1161
REMARK  534  A    between atoms: _1160  and  _1163
REMARK  535  A    between atoms: _1163  and  _1164
REMARK  536  A    between atoms: _1173  and  _1174
REMARK  537  A    between atoms: _1174  and  _1175
REMARK  538  A    between atoms: _1174  and  _1177
REMARK  539  A    between atoms: _1177  and  _1178
REMARK  540  A    between atoms: _1178  and  _1179
REMARK  541  A    between atoms: _1182  and  _1183
REMARK  542  A    between atoms: _1183  and  _1184
REMARK  543  A    between atoms: _1183  and  _1186
REMARK  544  A    between atoms: _1188  and  _1189
REMARK  545  A    between atoms: _1189  and  _1190
REMARK  546  A    between atoms: _1189  and  _1192
REMARK  547  A    between atoms: _1194  and  _1195
REMARK  548  A    between atoms: _1195  and  _1196
REMARK  549  A    between atoms: _1199  and  _1200
REMARK  550  A    between atoms: _1200  and  _1201
REMARK  551  A    between atoms: _1203  and  _1204
REMARK  552  A    between atoms: _1204  and  _1205
REMARK  553  A    between atoms: _1207  and  _1208
REMARK  554  A    between atoms: _1208  and  _1209
REMARK  555  A    between atoms: _1208  and  _1211
REMARK  556  A    between atoms: _1213  and  _1214
REMARK  557  A    between atoms: _1214  and  _1215
REMARK  558  A    between atoms: _1214  and  _1217
REMARK  559  A    between atoms: _1217  and  _1218
REMARK  560  A    between atoms: _1224  and  _1225
REMARK  561  A    between atoms: _1225  and  _1226
REMARK  562  A    between atoms: _1225  and  _1228
REMARK  563  A    between atoms: _1231  and  _1232
REMARK  564  A    between atoms: _1232  and  _1233
REMARK  565  A    between atoms: _1232  and  _1235
REMARK  566  A    between atoms: _1238  and  _1239
REMARK  567  A    between atoms: _1239  and  _1240
REMARK  568  A    between atoms: _1239  and  _1242
REMARK  569  A    between atoms: _1242  and  _1243
REMARK  570  A    between atoms: _1243  and  _1244
REMARK  571  A    between atoms: _1244  and  _1245
REMARK  572  A    between atoms: _1249  and  _1250
REMARK  573  A    between atoms: _1250  and  _1251
REMARK  574  A    between atoms: _1250  and  _1253
REMARK  575  A    between atoms: _1256  and  _1257
REMARK  576  A    between atoms: _1257  and  _1258
REMARK  577  A    between atoms: _1257  and  _1260
REMARK  578  A    between atoms: _1260  and  _1261
REMARK  579  A    between atoms: _1264  and  _1265
REMARK  580  A    between atoms: _1265  and  _1266
REMARK  581  A    between atoms: _1265  and  _1268
REMARK  582  A    between atoms: _1271  and  _1272
REMARK  583  A    between atoms: _1272  and  _1273
REMARK  584  A    between atoms: _1275  and  _1276
REMARK  585  A    between atoms: _1276  and  _1277
REMARK  586  A    between atoms: _1276  and  _1279
REMARK  587  A    between atoms: _1279  and  _1280
REMARK  588  A    between atoms: _1280  and  _1281
REMARK  589  A    between atoms: _1285  and  _1286
REMARK  590  A    between atoms: _1291  and  _1293
REMARK  591  A    between atoms: _1298  and  _1299
REMARK  592  A    between atoms: _1299  and  _1301
REMARK  593  A    between atoms: _1300  and  _1301
REMARK  594  A    between atoms: _1304  and  _1305
REMARK  595  A    between atoms: _1305  and  _1306
REMARK  596  A    between atoms: _1308  and  _1309
REMARK  597  A    between atoms: _1309  and  _1310
REMARK  598  A    between atoms: _1309  and  _1312
REMARK  599  A    between atoms: _1312  and  _1313
REMARK  600  A    between atoms: _1313  and  _1314
REMARK  601  A    between atoms: _1314  and  _1315
REMARK  602  A    between atoms: _1319  and  _1320
REMARK  603  A    between atoms: _1320  and  _1321
REMARK  604  A    between atoms: _1323  and  _1324
REMARK  605  A    between atoms: _1324  and  _1325
REMARK  606  A    between atoms: _1324  and  _1327
REMARK  607  A    between atoms: _1330  and  _1331
REMARK  608  A    between atoms: _1331  and  _1332
REMARK  609  A    between atoms: _1331  and  _1334
REMARK  610  A    between atoms: _1334  and  _1335
REMARK  611  A    between atoms: _1335  and  _1336
REMARK  612  A    between atoms: _1336  and  _1337
REMARK  613  A    between atoms: _1339  and  _1340
REMARK  614  A    between atoms: _1340  and  _1341
REMARK  615  A    between atoms: _1340  and  _1343
REMARK  616  A    between atoms: _1346  and  _1347
REMARK  617  A    between atoms: _1347  and  _1348
REMARK  618  A    between atoms: _1347  and  _1350
REMARK  619  A    between atoms: _1350  and  _1351
REMARK  620  A    between atoms: _1354  and  _1355
REMARK  621  A    between atoms: _1355  and  _1356
REMARK  622  A    between atoms: _1355  and  _1358
REMARK  623  A    between atoms: _1358  and  _1359
REMARK  624  A    between atoms: _1362  and  _1363
REMARK  625  A    between atoms: _1363  and  _1364
REMARK  626  A    between atoms: _1363  and  _1366
REMARK  627  A    between atoms: _1366  and  _1367
REMARK  628  A    between atoms: _1372  and  _1373
REMARK  629  A    between atoms: _1373  and  _1374
REMARK  630  A    between atoms: _1373  and  _1376
REMARK  631  A    between atoms: _1376  and  _1377
REMARK  632  A    between atoms: _1380  and  _1381
REMARK  633  A    between atoms: _1381  and  _1382
REMARK  634  A    between atoms: _1381  and  _1384
REMARK  635  A    between atoms: _1384  and  _1385
REMARK  636  A    between atoms: _1385  and  _1386
REMARK  637  A    between atoms: _1386  and  _1387
REMARK  638  A    between atoms: _1389  and  _1390
REMARK  639  A    between atoms: _1390  and  _1391
REMARK  640  A    between atoms: _1390  and  _1393
REMARK  641  A    between atoms: _1393  and  _1394
REMARK  642  A    between atoms: _1394  and  _1395
REMARK  643  A    between atoms: _1398  and  _1399
REMARK  644  A    between atoms: _1399  and  _1400
REMARK  645  A    between atoms: _1399  and  _1402
REMARK  646  A    between atoms: _1402  and  _1403
REMARK  647  A    between atoms: _1406  and  _1407
REMARK  648  A    between atoms: _1407  and  _1408
REMARK  649  A    between atoms: _1407  and  _1410
REMARK  650  A    between atoms: _1410  and  _1411
REMARK  651  A    between atoms: _1411  and  _1412
REMARK  652  A    between atoms: _1415  and  _1416
REMARK  653  A    between atoms: _1416  and  _1417
REMARK  654  A    between atoms: _1416  and  _1419
REMARK  655  A    between atoms: _1422  and  _1423
REMARK  656  A    between atoms: _1423  and  _1424
REMARK  657  A    between atoms: _1423  and  _1426
REMARK  658  A    between atoms: _1426  and  _1427
REMARK  659  A    between atoms: _1427  and  _1428
REMARK  660  A    between atoms: _1431  and  _1432
REMARK  661  A    between atoms: _1432  and  _1433
REMARK  662  A    between atoms: _1432  and  _1435
REMARK  663  A    between atoms: _1435  and  _1436
REMARK  664  A    between atoms: _1443  and  _1444
REMARK  665  A    between atoms: _1444  and  _1445
REMARK  666  A    between atoms: _1444  and  _1447
REMARK  667  A    between atoms: _1447  and  _1448
REMARK  668  A    between atoms: _1451  and  _1452
REMARK  669  A    between atoms: _1452  and  _1453
REMARK  670  A    between atoms: _1452  and  _1455
REMARK  671  A    between atoms: _1455  and  _1456
REMARK  672  A    between atoms: _1456  and  _1457
REMARK  673  A    between atoms: _1460  and  _1461
REMARK  674  A    between atoms: _1461  and  _1462
REMARK  675  A    between atoms: _1461  and  _1464
REMARK  676  A    between atoms: _1464  and  _1465
REMARK  677  A    between atoms: _1465  and  _1466
REMARK  678  A    between atoms: _1469  and  _1470
REMARK  679  A    between atoms: _1470  and  _1471
REMARK  680  A    between atoms: _1470  and  _1473
REMARK  681  A    between atoms: _1473  and  _1474
REMARK  682  A    between atoms: _1474  and  _1475
REMARK  683  A    between atoms: _1475  and  _1476
REMARK  684  A    between atoms: _1480  and  _1481
REMARK  685  A    between atoms: _1481  and  _1482
REMARK  686  A    between atoms: _1481  and  _1484
REMARK  687  A    between atoms: _1484  and  _1485
REMARK  688  A    between atoms: _1485  and  _1486
REMARK  689  A    between atoms: _1486  and  _1487
REMARK  690  A    between atoms: _1491  and  _1492
REMARK  691  A    between atoms: _1492  and  _1493
REMARK  692  A    between atoms: _1492  and  _1495
REMARK  693  A    between atoms: _1495  and  _1496
REMARK  694  A    between atoms: _1499  and  _1500
REMARK  695  A    between atoms: _1500  and  _1501
REMARK  696  A    between atoms: _1500  and  _1503
REMARK  697  A    between atoms: _1503  and  _1504
REMARK  698  A    between atoms: _1504  and  _1505
REMARK  699  A    between atoms: _1505  and  _1506
REMARK  700  A    between atoms: _1508  and  _1509
REMARK  701  A    between atoms: _1509  and  _1510
REMARK  702  A    between atoms: _1509  and  _1512
REMARK  703  A    between atoms: _1512  and  _1513
REMARK  704  A    between atoms: _1513  and  _1514
REMARK  705  A    between atoms: _1517  and  _1518
REMARK  706  A    between atoms: _1518  and  _1519
REMARK  707  A    between atoms: _1518  and  _1521
REMARK  708  A    between atoms: _1521  and  _1522
REMARK  709  A    between atoms: _1525  and  _1526
REMARK  710  A    between atoms: _1526  and  _1527
REMARK  711  A    between atoms: _1526  and  _1529
REMARK  712  A    between atoms: _1532  and  _1533
REMARK  713  A    between atoms: _1533  and  _1534
REMARK  714  A    between atoms: _1533  and  _1536
REMARK  715  A    between atoms: _1536  and  _1537
REMARK  716  A    between atoms: _1537  and  _1538
REMARK  717  A    between atoms: _1538  and  _1539
REMARK  718  A    between atoms: _1541  and  _1542
REMARK  719  A    between atoms: _1542  and  _1543
REMARK  720  A    between atoms: _1542  and  _1545
REMARK  721  A    between atoms: _1545  and  _1546
REMARK  722  A    between atoms: _1546  and  _1547
REMARK  723  A    between atoms: _1547  and  _1548
REMARK  724  A    between atoms: _1550  and  _1551
REMARK  725  A    between atoms: _1551  and  _1552
REMARK  726  A    between atoms: _1551  and  _1554
REMARK  727  A    between atoms: _1554  and  _1555
REMARK  728  A    between atoms: _1560  and  _1561
REMARK  729  A    between atoms: _1561  and  _1562
REMARK  730  A    between atoms: _1561  and  _1564
REMARK  731  A    between atoms: _1566  and  _1567
REMARK  732  A    between atoms: _1567  and  _1568
REMARK  733  A    between atoms: _1567  and  _1570
REMARK  734  A    between atoms: _1570  and  _1571
REMARK  735  A    between atoms: _1571  and  _1572
REMARK  736  A    between atoms: _1575  and  _1576
REMARK  737  A    between atoms: _1576  and  _1577
REMARK  738  A    between atoms: _1576  and  _1579
REMARK  739  A    between atoms: _1579  and  _1580
REMARK  740  A    between atoms: _1586  and  _1587
REMARK  741  A    between atoms: _1587  and  _1588
REMARK  742  A    between atoms: _1587  and  _1590
REMARK  743  A    between atoms: _1590  and  _1591
REMARK  744  A    between atoms: _1594  and  _1595
REMARK  745  A    between atoms: _1595  and  _1596
REMARK  746  A    between atoms: _1598  and  _1599
REMARK  747  A    between atoms: _1599  and  _1600
REMARK  748  A    between atoms: _1599  and  _1602
REMARK  749  A    between atoms: _1602  and  _1603
REMARK  750  A    between atoms: _1611  and  _1612
REMARK  751  A    between atoms: _1617  and  _1618
REMARK  752  A    between atoms: _1618  and  _1619
REMARK  753  A    between atoms: _1618  and  _1621
REMARK  754  A    between atoms: _1621  and  _1622
REMARK  755  A    between atoms: _1625  and  _1626
REMARK  756  A    between atoms: _1626  and  _1627
REMARK  757  A    between atoms: _1626  and  _1629
REMARK  758  A    between atoms: _1632  and  _1633
REMARK  759  A    between atoms: _1633  and  _1634
REMARK  760  A    between atoms: _1633  and  _1636
REMARK  761  A    between atoms: _1636  and  _1637
REMARK  762  A    between atoms: _1640  and  _1641
REMARK  763  A    between atoms: _1641  and  _1642
REMARK  764  A    between atoms: _1641  and  _1644
REMARK  765  A    between atoms: _1644  and  _1645
REMARK  766  A    between atoms: _1651  and  _1652
REMARK  767  A    between atoms: _1652  and  _1653
REMARK  768  A    between atoms: _1652  and  _1655
REMARK  769  A    between atoms: _1658  and  _1659
REMARK  770  A    between atoms: _1659  and  _1660
REMARK  771  A    between atoms: _1659  and  _1662
REMARK  772  A    between atoms: _1662  and  _1663
REMARK  773  A    between atoms: _1663  and  _1664
REMARK  774  A    between atoms: _1667  and  _1668
REMARK  775  A    between atoms: _1668  and  _1669
REMARK  776  A    between atoms: _1668  and  _1671
REMARK  777  A    between atoms: _1671  and  _1672
REMARK  778  A    between atoms: _1672  and  _1673
REMARK  779  A    between atoms: _1673  and  _1674
REMARK                            x       y       z     vdW  Elec       q    Type
REMARK                         _______ _______ _______ _____ _____    ______ ____
ROOT
ATOM      1  C   UNL     1      -4.973  10.740  32.653  0.00  0.00    +0.279 C 
ATOM      2  O   UNL     1      -4.089   9.986  32.919  0.00  0.00    -0.279 OA
ENDROOT
TORSDOF 0
REMARK  Name = /Users/mlugowska/PhD/ML_residence_time_prediction/protein_files/5NYH_protein.pdb
REMARK  779 active torsions:
REMARK  status: ('A' for Active; 'I' for Inactive)
REMARK    1  A    between atoms: _2  and  _3
REMARK    2  A    between atoms: _2  and  _5
REMARK    3  A    between atoms: _5  and  _6
REMARK    4  A    between atoms: _6  and  _7
REMARK    5  A    between atoms: _10  and  _11
REMARK    6  A    between atoms: _11  and  _12
REMARK    7  A    between atoms: _11  and  _14
REMARK    8  A    between atoms: _17  and  _18
REMARK    9  A    between atoms: _18  and  _19
REMARK   10  A    between atoms: _18  and  _21
REMARK   11  A    between atoms: _21  and  _22
REMARK   12  A    between atoms: _22  and  _23
REMARK   13  A    between atoms: _26  and  _27
REMARK   14  A    between atoms: _27  and  _28
REMARK   15  A    between atoms: _27  and  _30
REMARK   16  A    between atoms: _33  and  _34
REMARK   17  A    between atoms: _34  and  _35
REMARK   18  A    between atoms: _34  and  _37
REMARK   19  A    between atoms: _37  and  _38
REMARK   20  A    between atoms: _44  and  _45
REMARK   21  A    between atoms: _45  and  _46
REMARK   22  A    between atoms: _49  and  _50
REMARK   23  A    between atoms: _50  and  _51
REMARK   24  A    between atoms: _50  and  _53
REMARK   25  A    between atoms: _53  and  _54
REMARK   26  A    between atoms: _60  and  _61
REMARK   27  A    between atoms: _61  and  _62
REMARK   28  A    between atoms: _61  and  _64
REMARK   29  A    between atoms: _64  and  _65
REMARK   30  A    between atoms: _65  and  _66
REMARK   31  A    between atoms: _69  and  _70
REMARK   32  A    between atoms: _70  and  _71
REMARK   33  A    between atoms: _74  and  _75
REMARK   34  A    between atoms: _75  and  _76
REMARK   35  A    between atoms: _75  and  _78
REMARK   36  A    between atoms: _78  and  _79
REMARK   37  A    between atoms: _79  and  _80
REMARK   38  A    between atoms: _83  and  _84
REMARK   39  A    between atoms: _84  and  _85
REMARK   40  A    between atoms: _84  and  _87
REMARK   41  A    between atoms: _87  and  _88
REMARK   42  A    between atoms: _91  and  _92
REMARK   43  A    between atoms: _92  and  _93
REMARK   44  A    between atoms: _96  and  _97
REMARK   45  A    between atoms: _97  and  _98
REMARK   46  A    between atoms: _97  and  _100
REMARK   47  A    between atoms: _100  and  _101
REMARK   48  A    between atoms: _101  and  _102
REMARK   49  A    between atoms: _105  and  _106
REMARK   50  A    between atoms: _106  and  _107
REMARK   51  A    between atoms: _106  and  _109
REMARK   52  A    between atoms: _109  and  _110
REMARK   53  A    between atoms: _113  and  _114
REMARK   54  A    between atoms: _114  and  _115
REMARK   55  A    between atoms: _114  and  _117
REMARK   56  A    between atoms: _117  and  _118
REMARK   57  A    between atoms: _118  and  _119
REMARK   58  A    between atoms: _121  and  _122
REMARK   59  A    between atoms: _122  and  _123
REMARK   60  A    between atoms: _122  and  _125
REMARK   61  A    between atoms: _127  and  _128
REMARK   62  A    between atoms: _128  and  _129
REMARK   63  A    between atoms: _128  and  _131
REMARK   64  A    between atoms: _131  and  _132
REMARK   65  A    between atoms: _135  and  _136
REMARK   66  A    between atoms: _136  and  _137
REMARK   67  A    between atoms: _136  and  _139
REMARK   68  A    between atoms: _139  and  _140
REMARK   69  A    between atoms: _143  and  _144
REMARK   70  A    between atoms: _144  and  _145
REMARK   71  A    between atoms: _144  and  _147
REMARK   72  A    between atoms: _147  and  _148
REMARK   73  A    between atoms: _151  and  _152
REMARK   74  A    between atoms: _152  and  _153
REMARK   75  A    between atoms: _152  and  _155
REMARK   76  A    between atoms: _155  and  _156
REMARK   77  A    between atoms: _159  and  _160
REMARK   78  A    between atoms: _160  and  _161
REMARK   79  A    between atoms: _160  and  _163
REMARK   80  A    between atoms: _166  and  _167
REMARK   81  A    between atoms: _167  and  _168
REMARK   82  A    between atoms: _167  and  _170
REMARK   83  A    between atoms: _170  and  _171
REMARK   84  A    between atoms: _177  and  _178
REMARK   85  A    between atoms: _178  and  _179
REMARK   86  A    between atoms: _178  and  _181
REMARK   87  A    between atoms: _181  and  _182
REMARK   88  A    between atoms: _189  and  _190
REMARK   89  A    between atoms: _190  and  _191
REMARK   90  A    between atoms: _190  and  _193
REMARK   91  A    between atoms: _195  and  _196
REMARK   92  A    between atoms: _196  and  _197
REMARK   93  A    between atoms: _196  and  _199
REMARK   94  A    between atoms: _199  and  _200
REMARK   95  A    between atoms: _203  and  _204
REMARK   96  A    between atoms: _204  and  _205
REMARK   97  A    between atoms: _204  and  _207
REMARK   98  A    between atoms: _207  and  _208
REMARK   99  A    between atoms: _208  and  _209
REMARK  100  A    between atoms: _209  and  _210
REMARK  101  A    between atoms: _212  and  _213
REMARK  102  A    between atoms: _213  and  _214
REMARK  103  A    between atoms: _213  and  _216
REMARK  104  A    between atoms: _216  and  _217
REMARK  105  A    between atoms: _217  and  _218
REMARK  106  A    between atoms: _221  and  _222
REMARK  107  A    between atoms: _222  and  _223
REMARK  108  A    between atoms: _222  and  _225
REMARK  109  A    between atoms: _225  and  _226
REMARK  110  A    between atoms: _229  and  _230
REMARK  111  A    between atoms: _230  and  _231
REMARK  112  A    between atoms: _230  and  _233
REMARK  113  A    between atoms: _233  and  _234
REMARK  114  A    between atoms: _240  and  _241
REMARK  115  A    between atoms: _241  and  _242
REMARK  116  A    between atoms: _241  and  _244
REMARK  117  A    between atoms: _244  and  _245
REMARK  118  A    between atoms: _248  and  _249
REMARK  119  A    between atoms: _249  and  _250
REMARK  120  A    between atoms: _249  and  _252
REMARK  121  A    between atoms: _252  and  _253
REMARK  122  A    between atoms: _253  and  _254
REMARK  123  A    between atoms: _254  and  _255
REMARK  124  A    between atoms: _259  and  _260
REMARK  125  A    between atoms: _260  and  _261
REMARK  126  A    between atoms: _260  and  _263
REMARK  127  A    between atoms: _263  and  _264
REMARK  128  A    between atoms: _264  and  _265
REMARK  129  A    between atoms: _268  and  _269
REMARK  130  A    between atoms: _269  and  _270
REMARK  131  A    between atoms: _269  and  _272
REMARK  132  A    between atoms: _272  and  _273
REMARK  133  A    between atoms: _276  and  _277
REMARK  134  A    between atoms: _277  and  _278
REMARK  135  A    between atoms: _277  and  _280
REMARK  136  A    between atoms: _280  and  _281
REMARK  137  A    between atoms: _284  and  _285
REMARK  138  A    between atoms: _285  and  _286
REMARK  139  A    between atoms: _285  and  _288
REMARK  140  A    between atoms: _290  and  _291
REMARK  141  A    between atoms: _291  and  _292
REMARK  142  A    between atoms: _291  and  _294
REMARK  143  A    between atoms: _294  and  _295
REMARK  144  A    between atoms: _298  and  _299
REMARK  145  A    between atoms: _299  and  _300
REMARK  146  A    between atoms: _299  and  _302
REMARK  147  A    between atoms: _304  and  _305
REMARK  148  A    between atoms: _305  and  _306
REMARK  149  A    between atoms: _305  and  _308
REMARK  150  A    between atoms: _310  and  _311
REMARK  151  A    between atoms: _311  and  _312
REMARK  152  A    between atoms: _311  and  _314
REMARK  153  A    between atoms: _314  and  _315
REMARK  154  A    between atoms: _318  and  _319
REMARK  155  A    between atoms: _319  and  _320
REMARK  156  A    between atoms: _323  and  _324
REMARK  157  A    between atoms: _324  and  _325
REMARK  158  A    between atoms: _324  and  _327
REMARK  159  A    between atoms: _327  and  _328
REMARK  160  A    between atoms: _331  and  _332
REMARK  161  A    between atoms: _332  and  _333
REMARK  162  A    between atoms: _332  and  _335
REMARK  163  A    between atoms: _335  and  _336
REMARK  164  A    between atoms: _339  and  _340
REMARK  165  A    between atoms: _340  and  _341
REMARK  166  A    between atoms: _340  and  _343
REMARK  167  A    between atoms: _343  and  _344
REMARK  168  A    between atoms: _344  and  _345
REMARK  169  A    between atoms: _345  and  _346
REMARK  170  A    between atoms: _348  and  _349
REMARK  171  A    between atoms: _349  and  _350
REMARK  172  A    between atoms: _349  and  _352
REMARK  173  A    between atoms: _352  and  _353
REMARK  174  A    between atoms: _356  and  _357
REMARK  175  A    between atoms: _357  and  _358
REMARK  176  A    between atoms: _357  and  _360
REMARK  177  A    between atoms: _360  and  _361
REMARK  178  A    between atoms: _361  and  _362
REMARK  179  A    between atoms: _362  and  _363
REMARK  180  A    between atoms: _367  and  _368
REMARK  181  A    between atoms: _368  and  _369
REMARK  182  A    between atoms: _368  and  _371
REMARK  183  A    between atoms: _371  and  _372
REMARK  184  A    between atoms: _379  and  _380
REMARK  185  A    between atoms: _380  and  _381
REMARK  186  A    between atoms: _380  and  _383
REMARK  187  A    between atoms: _383  and  _384
REMARK  188  A    between atoms: _384  and  _385
REMARK  189  A    between atoms: _388  and  _389
REMARK  190  A    between atoms: _389  and  _390
REMARK  191  A    between atoms: _389  and  _392
REMARK  192  A    between atoms: _394  and  _395
REMARK  193  A    between atoms: _395  and  _396
REMARK  194  A    between atoms: _395  and  _398
REMARK  195  A    between atoms: _398  and  _399
REMARK  196  A    between atoms: _402  and  _403
REMARK  197  A    between atoms: _403  and  _404
REMARK  198  A    between atoms: _403  and  _406
REMARK  199  A    between atoms: _409  and  _410
REMARK  200  A    between atoms: _410  and  _411
REMARK  201  A    between atoms: _410  and  _413
REMARK  202  A    between atoms: _413  and  _414
REMARK  203  A    between atoms: _418  and  _419
REMARK  204  A    between atoms: _424  and  _425
REMARK  205  A    between atoms: _425  and  _426
REMARK  206  A    between atoms: _425  and  _428
REMARK  207  A    between atoms: _430  and  _431
REMARK  208  A    between atoms: _431  and  _432
REMARK  209  A    between atoms: _431  and  _434
REMARK  210  A    between atoms: _434  and  _435
REMARK  211  A    between atoms: _435  and  _436
REMARK  212  A    between atoms: _436  and  _437
REMARK  213  A    between atoms: _439  and  _440
REMARK  214  A    between atoms: _440  and  _441
REMARK  215  A    between atoms: _440  and  _443
REMARK  216  A    between atoms: _443  and  _444
REMARK  217  A    between atoms: _447  and  _448
REMARK  218  A    between atoms: _448  and  _449
REMARK  219  A    between atoms: _448  and  _451
REMARK  220  A    between atoms: _451  and  _452
REMARK  221  A    between atoms: _455  and  _456
REMARK  222  A    between atoms: _456  and  _457
REMARK  223  A    between atoms: _456  and  _459
REMARK  224  A    between atoms: _461  and  _462
REMARK  225  A    between atoms: _462  and  _463
REMARK  226  A    between atoms: _465  and  _466
REMARK  227  A    between atoms: _466  and  _467
REMARK  228  A    between atoms: _466  and  _469
REMARK  229  A    between atoms: _469  and  _470
REMARK  230  A    between atoms: _470  and  _471
REMARK  231  A    between atoms: _471  and  _472
REMARK  232  A    between atoms: _474  and  _475
REMARK  233  A    between atoms: _475  and  _476
REMARK  234  A    between atoms: _475  and  _478
REMARK  235  A    between atoms: _478  and  _479
REMARK  236  A    between atoms: _479  and  _480
REMARK  237  A    between atoms: _483  and  _484
REMARK  238  A    between atoms: _484  and  _485
REMARK  239  A    between atoms: _484  and  _487
REMARK  240  A    between atoms: _487  and  _488
REMARK  241  A    between atoms: _491  and  _492
REMARK  242  A    between atoms: _492  and  _493
REMARK  243  A    between atoms: _492  and  _495
REMARK  244  A    between atoms: _495  and  _496
REMARK  245  A    between atoms: _501  and  _502
REMARK  246  A    between atoms: _502  and  _503
REMARK  247  A    between atoms: _502  and  _505
REMARK  248  A    between atoms: _505  and  _506
REMARK  249  A    between atoms: _509  and  _510
REMARK  250  A    between atoms: _510  and  _511
REMARK  251  A    between atoms: _510  and  _513
REMARK  252  A    between atoms: _513  and  _514
REMARK  253  A    between atoms: _517  and  _518
REMARK  254  A    between atoms: _518  and  _519
REMARK  255  A    between atoms: _518  and  _521
REMARK  256  A    between atoms: _521  and  _522
REMARK  257  A    between atoms: _525  and  _526
REMARK  258  A    between atoms: _526  and  _527
REMARK  259  A    between atoms: _526  and  _529
REMARK  260  A    between atoms: _529  and  _530
REMARK  261  A    between atoms: _534  and  _535
REMARK  262  A    between atoms: _540  and  _541
REMARK  263  A    between atoms: _541  and  _542
REMARK  264  A    between atoms: _541  and  _544
REMARK  265  A    between atoms: _544  and  _545
REMARK  266  A    between atoms: _548  and  _549
REMARK  267  A    between atoms: _549  and  _552
REMARK  268  A    between atoms: _552  and  _553
REMARK  269  A    between atoms: _553  and  _554
REMARK  270  A    between atoms: _554  and  _555
REMARK  271  A    between atoms: _568  and  _569
REMARK  272  A    between atoms: _576  and  _577
REMARK  273  A    between atoms: _576  and  _579
REMARK  274  A    between atoms: _579  and  _580
REMARK  275  A    between atoms: _583  and  _584
REMARK  276  A    between atoms: _584  and  _585
REMARK  277  A    between atoms: _584  and  _587
REMARK  278  A    between atoms: _587  and  _588
REMARK  279  A    between atoms: _588  and  _589
REMARK  280  A    between atoms: _589  and  _590
REMARK  281  A    between atoms: _594  and  _595
REMARK  282  A    between atoms: _595  and  _596
REMARK  283  A    between atoms: _595  and  _598
REMARK  284  A    between atoms: _601  and  _602
REMARK  285  A    between atoms: _602  and  _603
REMARK  286  A    between atoms: _602  and  _605
REMARK  287  A    between atoms: _605  and  _606
REMARK  288  A    between atoms: _609  and  _610
REMARK  289  A    between atoms: _610  and  _611
REMARK  290  A    between atoms: _610  and  _613
REMARK  291  A    between atoms: _616  and  _617
REMARK  292  A    between atoms: _617  and  _618
REMARK  293  A    between atoms: _617  and  _620
REMARK  294  A    between atoms: _620  and  _621
REMARK  295  A    between atoms: _624  and  _625
REMARK  296  A    between atoms: _625  and  _626
REMARK  297  A    between atoms: _625  and  _628
REMARK  298  A    between atoms: _631  and  _632
REMARK  299  A    between atoms: _632  and  _633
REMARK  300  A    between atoms: _632  and  _635
REMARK  301  A    between atoms: _635  and  _636
REMARK  302  A    between atoms: _639  and  _640
REMARK  303  A    between atoms: _640  and  _641
REMARK  304  A    between atoms: _640  and  _643
REMARK  305  A    between atoms: _646  and  _647
REMARK  306  A    between atoms: _647  and  _648
REMARK  307  A    between atoms: _650  and  _651
REMARK  308  A    between atoms: _651  and  _652
REMARK  309  A    between atoms: _651  and  _654
REMARK  310  A    between atoms: _654  and  _655
REMARK  311  A    between atoms: _658  and  _659
REMARK  312  A    between atoms: _659  and  _660
REMARK  313  A    between atoms: _662  and  _663
REMARK  314  A    between atoms: _663  and  _664
REMARK  315  A    between atoms: _663  and  _666
REMARK  316  A    between atoms: _666  and  _667
REMARK  317  A    between atoms: _667  and  _668
REMARK  318  A    between atoms: _670  and  _671
REMARK  319  A    between atoms: _671  and  _672
REMARK  320  A    between atoms: _671  and  _674
REMARK  321  A    between atoms: _677  and  _678
REMARK  322  A    between atoms: _678  and  _679
REMARK  323  A    between atoms: _678  and  _681
REMARK  324  A    between atoms: _681  and  _682
REMARK  325  A    between atoms: _682  and  _683
REMARK  326  A    between atoms: _683  and  _684
REMARK  327  A    between atoms: _686  and  _687
REMARK  328  A    between atoms: _687  and  _688
REMARK  329  A    between atoms: _691  and  _692
REMARK  330  A    between atoms: _692  and  _693
REMARK  331  A    between atoms: _692  and  _695
REMARK  332  A    between atoms: _695  and  _696
REMARK  333  A    between atoms: _699  and  _700
REMARK  334  A    between atoms: _700  and  _701
REMARK  335  A    between atoms: _700  and  _703
REMARK  336  A    between atoms: _703  and  _704
REMARK  337  A    between atoms: _707  and  _708
REMARK  338  A    between atoms: _708  and  _709
REMARK  339  A    between atoms: _708  and  _711
REMARK  340  A    between atoms: _711  and  _712
REMARK  341  A    between atoms: _715  and  _716
REMARK  342  A    between atoms: _716  and  _717
REMARK  343  A    between atoms: _716  and  _719
REMARK  344  A    between atoms: _719  and  _720
REMARK  345  A    between atoms: _723  and  _724
REMARK  346  A    between atoms: _724  and  _725
REMARK  347  A    between atoms: _724  and  _727
REMARK  348  A    between atoms: _727  and  _728
REMARK  349  A    between atoms: _731  and  _732
REMARK  350  A    between atoms: _732  and  _733
REMARK  351  A    between atoms: _732  and  _735
REMARK  352  A    between atoms: _735  and  _736
REMARK  353  A    between atoms: _739  and  _740
REMARK  354  A    between atoms: _740  and  _741
REMARK  355  A    between atoms: _743  and  _744
REMARK  356  A    between atoms: _744  and  _745
REMARK  357  A    between atoms: _744  and  _747
REMARK  358  A    between atoms: _750  and  _751
REMARK  359  A    between atoms: _751  and  _752
REMARK  360  A    between atoms: _751  and  _754
REMARK  361  A    between atoms: _754  and  _755
REMARK  362  A    between atoms: _758  and  _759
REMARK  363  A    between atoms: _759  and  _760
REMARK  364  A    between atoms: _763  and  _764
REMARK  365  A    between atoms: _764  and  _765
REMARK  366  A    between atoms: _764  and  _767
REMARK  367  A    between atoms: _767  and  _768
REMARK  368  A    between atoms: _768  and  _769
REMARK  369  A    between atoms: _769  and  _770
REMARK  370  A    between atoms: _772  and  _773
REMARK  371  A    between atoms: _773  and  _774
REMARK  372  A    between atoms: _773  and  _776
REMARK  373  A    between atoms: _778  and  _779
REMARK  374  A    between atoms: _779  and  _780
REMARK  375  A    between atoms: _782  and  _783
REMARK  376  A    between atoms: _783  and  _784
REMARK  377  A    between atoms: _783  and  _786
REMARK  378  A    between atoms: _789  and  _790
REMARK  379  A    between atoms: _790  and  _791
REMARK  380  A    between atoms: _790  and  _793
REMARK  381  A    between atoms: _793  and  _794
REMARK  382  A    between atoms: _794  and  _795
REMARK  383  A    between atoms: _795  and  _796
REMARK  384  A    between atoms: _798  and  _799
REMARK  385  A    between atoms: _799  and  _800
REMARK  386  A    between atoms: _803  and  _804
REMARK  387  A    between atoms: _804  and  _805
REMARK  388  A    between atoms: _804  and  _807
REMARK  389  A    between atoms: _807  and  _808
REMARK  390  A    between atoms: _814  and  _815
REMARK  391  A    between atoms: _815  and  _816
REMARK  392  A    between atoms: _815  and  _818
REMARK  393  A    between atoms: _818  and  _819
REMARK  394  A    between atoms: _819  and  _820
REMARK  395  A    between atoms: _822  and  _823
REMARK  396  A    between atoms: _823  and  _824
REMARK  397  A    between atoms: _823  and  _826
REMARK  398  A    between atoms: _826  and  _827
REMARK  399  A    between atoms: _827  and  _828
REMARK  400  A    between atoms: _831  and  _832
REMARK  401  A    between atoms: _832  and  _833
REMARK  402  A    between atoms: _836  and  _837
REMARK  403  A    between atoms: _837  and  _838
REMARK  404  A    between atoms: _837  and  _840
REMARK  405  A    between atoms: _840  and  _841
REMARK  406  A    between atoms: _844  and  _845
REMARK  407  A    between atoms: _845  and  _846
REMARK  408  A    between atoms: _845  and  _848
REMARK  409  A    between atoms: _848  and  _849
REMARK  410  A    between atoms: _849  and  _850
REMARK  411  A    between atoms: _853  and  _854
REMARK  412  A    between atoms: _854  and  _855
REMARK  413  A    between atoms: _858  and  _859
REMARK  414  A    between atoms: _859  and  _860
REMARK  415  A    between atoms: _862  and  _863
REMARK  416  A    between atoms: _863  and  _864
REMARK  417  A    between atoms: _867  and  _868
REMARK  418  A    between atoms: _868  and  _869
REMARK  419  A    between atoms: _868  and  _871
REMARK  420  A    between atoms: _871  and  _872
REMARK  421  A    between atoms: _875  and  _876
REMARK  422  A    between atoms: _876  and  _877
REMARK  423  A    between atoms: _876  and  _879
REMARK  424  A    between atoms: _879  and  _880
REMARK  425  A    between atoms: _883  and  _884
REMARK  426  A    between atoms: _884  and  _887
REMARK  427  A    between atoms: _906  and  _907
REMARK  428  A    between atoms: _906  and  _909
REMARK  429  A    between atoms: _909  and  _910
REMARK  430  A    between atoms: _913  and  _914
REMARK  431  A    between atoms: _914  and  _915
REMARK  432  A    between atoms: _917  and  _918
REMARK  433  A    between atoms: _918  and  _919
REMARK  434  A    between atoms: _918  and  _921
REMARK  435  A    between atoms: _921  and  _922
REMARK  436  A    between atoms: _922  and  _923
REMARK  437  A    between atoms: _926  and  _927
REMARK  438  A    between atoms: _927  and  _928
REMARK  439  A    between atoms: _927  and  _930
REMARK  440  A    between atoms: _930  and  _931
REMARK  441  A    between atoms: _937  and  _938
REMARK  442  A    between atoms: _938  and  _939
REMARK  443  A    between atoms: _941  and  _942
REMARK  444  A    between atoms: _942  and  _943
REMARK  445  A    between atoms: _942  and  _945
REMARK  446  A    between atoms: _948  and  _949
REMARK  447  A    between atoms: _949  and  _950
REMARK  448  A    between atoms: _952  and  _953
REMARK  449  A    between atoms: _953  and  _954
REMARK  450  A    between atoms: _953  and  _956
REMARK  451  A    between atoms: _956  and  _957
REMARK  452  A    between atoms: _963  and  _964
REMARK  453  A    between atoms: _964  and  _965
REMARK  454  A    between atoms: _964  and  _967
REMARK  455  A    between atoms: _967  and  _968
REMARK  456  A    between atoms: _975  and  _976
REMARK  457  A    between atoms: _976  and  _977
REMARK  458  A    between atoms: _976  and  _979
REMARK  459  A    between atoms: _981  and  _982
REMARK  460  A    between atoms: _982  and  _983
REMARK  461  A    between atoms: _986  and  _987
REMARK  462  A    between atoms: _987  and  _988
REMARK  463  A    between atoms: _987  and  _990
REMARK  464  A    between atoms: _990  and  _991
REMARK  465  A    between atoms: _998  and  _999
REMARK  466  A    between atoms: _999  and  _1000
REMARK  467  A    between atoms: _999  and  _1002
REMARK  468  A    between atoms: _1002  and  _1003
REMARK  469  A    between atoms: _1006  and  _1007
REMARK  470  A    between atoms: _1007  and  _1008
REMARK  471  A    between atoms: _1007  and  _1010
REMARK  472  A    between atoms: _1013  and  _1014
REMARK  473  A    between atoms: _1014  and  _1015
REMARK  474  A    between atoms: _1018  and  _1019
REMARK  475  A    between atoms: _1019  and  _1020
REMARK  476  A    between atoms: _1019  and  _1022
REMARK  477  A    between atoms: _1023  and  _1024
REMARK  478  A    between atoms: _1027  and  _1028
REMARK  479  A    between atoms: _1028  and  _1029
REMARK  480  A    between atoms: _1028  and  _1031
REMARK  481  A    between atoms: _1031  and  _1032
REMARK  482  A    between atoms: _1032  and  _1033
REMARK  483  A    between atoms: _1033  and  _1034
REMARK  484  A    between atoms: _1036  and  _1037
REMARK  485  A    between atoms: _1037  and  _1038
REMARK  486  A    between atoms: _1037  and  _1040
REMARK  487  A    between atoms: _1043  and  _1044
REMARK  488  A    between atoms: _1044  and  _1045
REMARK  489  A    between atoms: _1044  and  _1047
REMARK  490  A    between atoms: _1050  and  _1051
REMARK  491  A    between atoms: _1051  and  _1052
REMARK  492  A    between atoms: _1051  and  _1054
REMARK  493  A    between atoms: _1057  and  _1058
REMARK  494  A    between atoms: _1058  and  _1059
REMARK  495  A    between atoms: _1058  and  _1061
REMARK  496  A    between atoms: _1061  and  _1062
REMARK  497  A    between atoms: _1065  and  _1066
REMARK  498  A    between atoms: _1066  and  _1067
REMARK  499  A    between atoms: _1066  and  _1069
REMARK  500  A    between atoms: _1072  and  _1073
REMARK  501  A    between atoms: _1073  and  _1074
REMARK  502  A    between atoms: _1073  and  _1076
REMARK  503  A    between atoms: _1076  and  _1077
REMARK  504  A    between atoms: _1077  and  _1078
REMARK  505  A    between atoms: _1078  and  _1079
REMARK  506  A    between atoms: _1081  and  _1082
REMARK  507  A    between atoms: _1082  and  _1083
REMARK  508  A    between atoms: _1082  and  _1085
REMARK  509  A    between atoms: _1085  and  _1086
REMARK  510  A    between atoms: _1091  and  _1092
REMARK  511  A    between atoms: _1092  and  _1093
REMARK  512  A    between atoms: _1092  and  _1095
REMARK  513  A    between atoms: _1095  and  _1096
REMARK  514  A    between atoms: _1099  and  _1100
REMARK  515  A    between atoms: _1100  and  _1101
REMARK  516  A    between atoms: _1100  and  _1103
REMARK  517  A    between atoms: _1103  and  _1104
REMARK  518  A    between atoms: _1107  and  _1108
REMARK  519  A    between atoms: _1108  and  _1111
REMARK  520  A    between atoms: _1111  and  _1112
REMARK  521  A    between atoms: _1125  and  _1127
REMARK  522  A    between atoms: _1134  and  _1135
REMARK  523  A    between atoms: _1134  and  _1137
REMARK  524  A    between atoms: _1137  and  _1138
REMARK  525  A    between atoms: _1138  and  _1139
REMARK  526  A    between atoms: _1142  and  _1143
REMARK  527  A    between atoms: _1143  and  _1144
REMARK  528  A    between atoms: _1143  and  _1146
REMARK  529  A    between atoms: _1146  and  _1147
REMARK  530  A    between atoms: _1154  and  _1155
REMARK  531  A    between atoms: _1155  and  _1156
REMARK  532  A    between atoms: _1159  and  _1160
REMARK  533  A    between atoms: _1160  and  _1161
REMARK  534  A    between atoms: _1160  and  _1163
REMARK  535  A    between atoms: _1163  and  _1164
REMARK  536  A    between atoms: _1173  and  _1174
REMARK  537  A    between atoms: _1174  and  _1175
REMARK  538  A    between atoms: _1174  and  _1177
REMARK  539  A    between atoms: _1177  and  _1178
REMARK  540  A    between atoms: _1178  and  _1179
REMARK  541  A    between atoms: _1182  and  _1183
REMARK  542  A    between atoms: _1183  and  _1184
REMARK  543  A    between atoms: _1183  and  _1186
REMARK  544  A    between atoms: _1188  and  _1189
REMARK  545  A    between atoms: _1189  and  _1190
REMARK  546  A    between atoms: _1189  and  _1192
REMARK  547  A    between atoms: _1194  and  _1195
REMARK  548  A    between atoms: _1195  and  _1196
REMARK  549  A    between atoms: _1199  and  _1200
REMARK  550  A    between atoms: _1200  and  _1201
REMARK  551  A    between atoms: _1203  and  _1204
REMARK  552  A    between atoms: _1204  and  _1205
REMARK  553  A    between atoms: _1207  and  _1208
REMARK  554  A    between atoms: _1208  and  _1209
REMARK  555  A    between atoms: _1208  and  _1211
REMARK  556  A    between atoms: _1213  and  _1214
REMARK  557  A    between atoms: _1214  and  _1215
REMARK  558  A    between atoms: _1214  and  _1217
REMARK  559  A    between atoms: _1217  and  _1218
REMARK  560  A    between atoms: _1224  and  _1225
REMARK  561  A    between atoms: _1225  and  _1226
REMARK  562  A    between atoms: _1225  and  _1228
REMARK  563  A    between atoms: _1231  and  _1232
REMARK  564  A    between atoms: _1232  and  _1233
REMARK  565  A    between atoms: _1232  and  _1235
REMARK  566  A    between atoms: _1238  and  _1239
REMARK  567  A    between atoms: _1239  and  _1240
REMARK  568  A    between atoms: _1239  and  _1242
REMARK  569  A    between atoms: _1242  and  _1243
REMARK  570  A    between atoms: _1243  and  _1244
REMARK  571  A    between atoms: _1244  and  _1245
REMARK  572  A    between atoms: _1249  and  _1250
REMARK  573  A    between atoms: _1250  and  _1251
REMARK  574  A    between atoms: _1250  and  _1253
REMARK  575  A    between atoms: _1256  and  _1257
REMARK  576  A    between atoms: _1257  and  _1258
REMARK  577  A    between atoms: _1257  and  _1260
REMARK  578  A    between atoms: _1260  and  _1261
REMARK  579  A    between atoms: _1264  and  _1265
REMARK  580  A    between atoms: _1265  and  _1266
REMARK  581  A    between atoms: _1265  and  _1268
REMARK  582  A    between atoms: _1271  and  _1272
REMARK  583  A    between atoms: _1272  and  _1273
REMARK  584  A    between atoms: _1275  and  _1276
REMARK  585  A    between atoms: _1276  and  _1277
REMARK  586  A    between atoms: _1276  and  _1279
REMARK  587  A    between atoms: _1279  and  _1280
REMARK  588  A    between atoms: _1280  and  _1281
REMARK  589  A    between atoms: _1285  and  _1286
REMARK  590  A    between atoms: _1291  and  _1293
REMARK  591  A    between atoms: _1298  and  _1299
REMARK  592  A    between atoms: _1299  and  _1301
REMARK  593  A    between atoms: _1300  and  _1301
REMARK  594  A    between atoms: _1304  and  _1305
REMARK  595  A    between atoms: _1305  and  _1306
REMARK  596  A    between atoms: _1308  and  _1309
REMARK  597  A    between atoms: _1309  and  _1310
REMARK  598  A    between atoms: _1309  and  _1312
REMARK  599  A    between atoms: _1312  and  _1313
REMARK  600  A    between atoms: _1313  and  _1314
REMARK  601  A    between atoms: _1314  and  _1315
REMARK  602  A    between atoms: _1319  and  _1320
REMARK  603  A    between atoms: _1320  and  _1321
REMARK  604  A    between atoms: _1323  and  _1324
REMARK  605  A    between atoms: _1324  and  _1325
REMARK  606  A    between atoms: _1324  and  _1327
REMARK  607  A    between atoms: _1330  and  _1331
REMARK  608  A    between atoms: _1331  and  _1332
REMARK  609  A    between atoms: _1331  and  _1334
REMARK  610  A    between atoms: _1334  and  _1335
REMARK  611  A    between atoms: _1335  and  _1336
REMARK  612  A    between atoms: _1336  and  _1337
REMARK  613  A    between atoms: _1339  and  _1340
REMARK  614  A    between atoms: _1340  and  _1341
REMARK  615  A    between atoms: _1340  and  _1343
REMARK  616  A    between atoms: _1346  and  _1347
REMARK  617  A    between atoms: _1347  and  _1348
REMARK  618  A    between atoms: _1347  and  _1350
REMARK  619  A    between atoms: _1350  and  _1351
REMARK  620  A    between atoms: _1354  and  _1355
REMARK  621  A    between atoms: _1355  and  _1356
REMARK  622  A    between atoms: _1355  and  _1358
REMARK  623  A    between atoms: _1358  and  _1359
REMARK  624  A    between atoms: _1362  and  _1363
REMARK  625  A    between atoms: _1363  and  _1364
REMARK  626  A    between atoms: _1363  and  _1366
REMARK  627  A    between atoms: _1366  and  _1367
REMARK  628  A    between atoms: _1372  and  _1373
REMARK  629  A    between atoms: _1373  and  _1374
REMARK  630  A    between atoms: _1373  and  _1376
REMARK  631  A    between atoms: _1376  and  _1377
REMARK  632  A    between atoms: _1380  and  _1381
REMARK  633  A    between atoms: _1381  and  _1382
REMARK  634  A    between atoms: _1381  and  _1384
REMARK  635  A    between atoms: _1384  and  _1385
REMARK  636  A    between atoms: _1385  and  _1386
REMARK  637  A    between atoms: _1386  and  _1387
REMARK  638  A    between atoms: _1389  and  _1390
REMARK  639  A    between atoms: _1390  and  _1391
REMARK  640  A    between atoms: _1390  and  _1393
REMARK  641  A    between atoms: _1393  and  _1394
REMARK  642  A    between atoms: _1394  and  _1395
REMARK  643  A    between atoms: _1398  and  _1399
REMARK  644  A    between atoms: _1399  and  _1400
REMARK  645  A    between atoms: _1399  and  _1402
REMARK  646  A    between atoms: _1402  and  _1403
REMARK  647  A    between atoms: _1406  and  _1407
REMARK  648  A    between atoms: _1407  and  _1408
REMARK  649  A    between atoms: _1407  and  _1410
REMARK  650  A    between atoms: _1410  and  _1411
REMARK  651  A    between atoms: _1411  and  _1412
REMARK  652  A    between atoms: _1415  and  _1416
REMARK  653  A    between atoms: _1416  and  _1417
REMARK  654  A    between atoms: _1416  and  _1419
REMARK  655  A    between atoms: _1422  and  _1423
REMARK  656  A    between atoms: _1423  and  _1424
REMARK  657  A    between atoms: _1423  and  _1426
REMARK  658  A    between atoms: _1426  and  _1427
REMARK  659  A    between atoms: _1427  and  _1428
REMARK  660  A    between atoms: _1431  and  _1432
REMARK  661  A    between atoms: _1432  and  _1433
REMARK  662  A    between atoms: _1432  and  _1435
REMARK  663  A    between atoms: _1435  and  _1436
REMARK  664  A    between atoms: _1443  and  _1444
REMARK  665  A    between atoms: _1444  and  _1445
REMARK  666  A    between atoms: _1444  and  _1447
REMARK  667  A    between atoms: _1447  and  _1448
REMARK  668  A    between atoms: _1451  and  _1452
REMARK  669  A    between atoms: _1452  and  _1453
REMARK  670  A    between atoms: _1452  and  _1455
REMARK  671  A    between atoms: _1455  and  _1456
REMARK  672  A    between atoms: _1456  and  _1457
REMARK  673  A    between atoms: _1460  and  _1461
REMARK  674  A    between atoms: _1461  and  _1462
REMARK  675  A    between atoms: _1461  and  _1464
REMARK  676  A    between atoms: _1464  and  _1465
REMARK  677  A    between atoms: _1465  and  _1466
REMARK  678  A    between atoms: _1469  and  _1470
REMARK  679  A    between atoms: _1470  and  _1471
REMARK  680  A    between atoms: _1470  and  _1473
REMARK  681  A    between atoms: _1473  and  _1474
REMARK  682  A    between atoms: _1474  and  _1475
REMARK  683  A    between atoms: _1475  and  _1476
REMARK  684  A    between atoms: _1480  and  _1481
REMARK  685  A    between atoms: _1481  and  _1482
REMARK  686  A    between atoms: _1481  and  _1484
REMARK  687  A    between atoms: _1484  and  _1485
REMARK  688  A    between atoms: _1485  and  _1486
REMARK  689  A    between atoms: _1486  and  _1487
REMARK  690  A    between atoms: _1491  and  _1492
REMARK  691  A    between atoms: _1492  and  _1493
REMARK  692  A    between atoms: _1492  and  _1495
REMARK  693  A    between atoms: _1495  and  _1496
REMARK  694  A    between atoms: _1499  and  _1500
REMARK  695  A    between atoms: _1500  and  _1501
REMARK  696  A    between atoms: _1500  and  _1503
REMARK  697  A    between atoms: _1503  and  _1504
REMARK  698  A    between atoms: _1504  and  _1505
REMARK  699  A    between atoms: _1505  and  _1506
REMARK  700  A    between atoms: _1508  and  _1509
REMARK  701  A    between atoms: _1509  and  _1510
REMARK  702  A    between atoms: _1509  and  _1512
REMARK  703  A    between atoms: _1512  and  _1513
REMARK  704  A    between atoms: _1513  and  _1514
REMARK  705  A    between atoms: _1517  and  _1518
REMARK  706  A    between atoms: _1518  and  _1519
REMARK  707  A    between atoms: _1518  and  _1521
REMARK  708  A    between atoms: _1521  and  _1522
REMARK  709  A    between atoms: _1525  and  _1526
REMARK  710  A    between atoms: _1526  and  _1527
REMARK  711  A    between atoms: _1526  and  _1529
REMARK  712  A    between atoms: _1532  and  _1533
REMARK  713  A    between atoms: _1533  and  _1534
REMARK  714  A    between atoms: _1533  and  _1536
REMARK  715  A    between atoms: _1536  and  _1537
REMARK  716  A    between atoms: _1537  and  _1538
REMARK  717  A    between atoms: _1538  and  _1539
REMARK  718  A    between atoms: _1541  and  _1542
REMARK  719  A    between atoms: _1542  and  _1543
REMARK  720  A    between atoms: _1542  and  _1545
REMARK  721  A    between atoms: _1545  and  _1546
REMARK  722  A    between atoms: _1546  and  _1547
REMARK  723  A    between atoms: _1547  and  _1548
REMARK  724  A    between atoms: _1550  and  _1551
REMARK  725  A    between atoms: _1551  and  _1552
REMARK  726  A    between atoms: _1551  and  _1554
REMARK  727  A    between atoms: _1554  and  _1555
REMARK  728  A    between atoms: _1560  and  _1561
REMARK  729  A    between atoms: _1561  and  _1562
REMARK  730  A    between atoms: _1561  and  _1564
REMARK  731  A    between atoms: _1566  and  _1567
REMARK  732  A    between atoms: _1567  and  _1568
REMARK  733  A    between atoms: _1567  and  _1570
REMARK  734  A    between atoms: _1570  and  _1571
REMARK  735  A    between atoms: _1571  and  _1572
REMARK  736  A    between atoms: _1575  and  _1576
REMARK  737  A    between atoms: _1576  and  _1577
REMARK  738  A    between atoms: _1576  and  _1579
REMARK  739  A    between atoms: _1579  and  _1580
REMARK  740  A    between atoms: _1586  and  _1587
REMARK  741  A    between atoms: _1587  and  _1588
REMARK  742  A    between atoms: _1587  and  _1590
REMARK  743  A    between atoms: _1590  and  _1591
REMARK  744  A    between atoms: _1594  and  _1595
REMARK  745  A    between atoms: _1595  and  _1596
REMARK  746  A    between atoms: _1598  and  _1599
REMARK  747  A    between atoms: _1599  and  _1600
REMARK  748  A    between atoms: _1599  and  _1602
REMARK  749  A    between atoms: _1602  and  _1603
REMARK  750  A    between atoms: _1611  and  _1612
REMARK  751  A    between atoms: _1617  and  _1618
REMARK  752  A    between atoms: _1618  and  _1619
REMARK  753  A    between atoms: _1618  and  _1621
REMARK  754  A    between atoms: _1621  and  _1622
REMARK  755  A    between atoms: _1625  and  _1626
REMARK  756  A    between atoms: _1626  and  _1627
REMARK  757  A    between atoms: _1626  and  _1629
REMARK  758  A    between atoms: _1632  and  _1633
REMARK  759  A    between atoms: _1633  and  _1634
REMARK  760  A    between atoms: _1633  and  _1636
REMARK  761  A    between atoms: _1636  and  _1637
REMARK  762  A    between atoms: _1640  and  _1641
REMARK  763  A    between atoms: _1641  and  _1642
REMARK  764  A    between atoms: _1641  and  _1644
REMARK  765  A    between atoms: _1644  and  _1645
REMARK  766  A    between atoms: _1651  and  _1652
REMARK  767  A    between atoms: _1652  and  _1653
REMARK  768  A    between atoms: _1652  and  _1655
REMARK  769  A    between atoms: _1658  and  _1659
REMARK  770  A    between atoms: _1659  and  _1660
REMARK  771  A    between atoms: _1659  and  _1662
REMARK  772  A    between atoms: _1662  and  _1663
REMARK  773  A    between atoms: _1663  and  _1664
REMARK  774  A    between atoms: _1667  and  _1668
REMARK  775  A    between atoms: _1668  and  _1669
REMARK  776  A    between atoms: _1668  and  _1671
REMARK  777  A    between atoms: _1671  and  _1672
REMARK  778  A    between atoms: _1672  and  _1673
REMARK  779  A    between atoms: _1673  and  _1674
REMARK                            x       y       z     vdW  Elec       q    Type
REMARK                         _______ _______ _______ _____ _____    ______ ____
ROOT
ATOM      1  C   UNL     1      -4.985  10.739  32.649  0.00  0.00    +0.000 C 
ENDROOT
TORSDOF 0
REMARK  Name = /Users/mlugowska/PhD/ML_residence_time_prediction/protein_files/5NYH_protein.pdb
REMARK  779 active torsions:
REMARK  status: ('A' for Active; 'I' for Inactive)
REMARK    1  A    between atoms: _2  and  _3
REMARK    2  A    between atoms: _2  and  _5
REMARK    3  A    between atoms: _5  and  _6
REMARK    4  A    between atoms: _6  and  _7
REMARK    5  A    between atoms: _10  and  _11
REMARK    6  A    between atoms: _11  and  _12
REMARK    7  A    between atoms: _11  and  _14
REMARK    8  A    between atoms: _17  and  _18
REMARK    9  A    between atoms: _18  and  _19
REMARK   10  A    between atoms: _18  and  _21
REMARK   11  A    between atoms: _21  and  _22
REMARK   12  A    between atoms: _22  and  _23
REMARK   13  A    between atoms: _26  and  _27
REMARK   14  A    between atoms: _27  and  _28
REMARK   15  A    between atoms: _27  and  _30
REMARK   16  A    between atoms: _33  and  _34
REMARK   17  A    between atoms: _34  and  _35
REMARK   18  A    between atoms: _34  and  _37
REMARK   19  A    between atoms: _37  and  _38
REMARK   20  A    between atoms: _44  and  _45
REMARK   21  A    between atoms: _45  and  _46
REMARK   22  A    between atoms: _49  and  _50
REMARK   23  A    between atoms: _50  and  _51
REMARK   24  A    between atoms: _50  and  _53
REMARK   25  A    between atoms: _53  and  _54
REMARK   26  A    between atoms: _60  and  _61
REMARK   27  A    between atoms: _61  and  _62
REMARK   28  A    between atoms: _61  and  _64
REMARK   29  A    between atoms: _64  and  _65
REMARK   30  A    between atoms: _65  and  _66
REMARK   31  A    between atoms: _69  and  _70
REMARK   32  A    between atoms: _70  and  _71
REMARK   33  A    between atoms: _74  and  _75
REMARK   34  A    between atoms: _75  and  _76
REMARK   35  A    between atoms: _75  and  _78
REMARK   36  A    between atoms: _78  and  _79
REMARK   37  A    between atoms: _79  and  _80
REMARK   38  A    between atoms: _83  and  _84
REMARK   39  A    between atoms: _84  and  _85
REMARK   40  A    between atoms: _84  and  _87
REMARK   41  A    between atoms: _87  and  _88
REMARK   42  A    between atoms: _91  and  _92
REMARK   43  A    between atoms: _92  and  _93
REMARK   44  A    between atoms: _96  and  _97
REMARK   45  A    between atoms: _97  and  _98
REMARK   46  A    between atoms: _97  and  _100
REMARK   47  A    between atoms: _100  and  _101
REMARK   48  A    between atoms: _101  and  _102
REMARK   49  A    between atoms: _105  and  _106
REMARK   50  A    between atoms: _106  and  _107
REMARK   51  A    between atoms: _106  and  _109
REMARK   52  A    between atoms: _109  and  _110
REMARK   53  A    between atoms: _113  and  _114
REMARK   54  A    between atoms: _114  and  _115
REMARK   55  A    between atoms: _114  and  _117
REMARK   56  A    between atoms: _117  and  _118
REMARK   57  A    between atoms: _118  and  _119
REMARK   58  A    between atoms: _121  and  _122
REMARK   59  A    between atoms: _122  and  _123
REMARK   60  A    between atoms: _122  and  _125
REMARK   61  A    between atoms: _127  and  _128
REMARK   62  A    between atoms: _128  and  _129
REMARK   63  A    between atoms: _128  and  _131
REMARK   64  A    between atoms: _131  and  _132
REMARK   65  A    between atoms: _135  and  _136
REMARK   66  A    between atoms: _136  and  _137
REMARK   67  A    between atoms: _136  and  _139
REMARK   68  A    between atoms: _139  and  _140
REMARK   69  A    between atoms: _143  and  _144
REMARK   70  A    between atoms: _144  and  _145
REMARK   71  A    between atoms: _144  and  _147
REMARK   72  A    between atoms: _147  and  _148
REMARK   73  A    between atoms: _151  and  _152
REMARK   74  A    between atoms: _152  and  _153
REMARK   75  A    between atoms: _152  and  _155
REMARK   76  A    between atoms: _155  and  _156
REMARK   77  A    between atoms: _159  and  _160
REMARK   78  A    between atoms: _160  and  _161
REMARK   79  A    between atoms: _160  and  _163
REMARK   80  A    between atoms: _166  and  _167
REMARK   81  A    between atoms: _167  and  _168
REMARK   82  A    between atoms: _167  and  _170
REMARK   83  A    between atoms: _170  and  _171
REMARK   84  A    between atoms: _177  and  _178
REMARK   85  A    between atoms: _178  and  _179
REMARK   86  A    between atoms: _178  and  _181
REMARK   87  A    between atoms: _181  and  _182
REMARK   88  A    between atoms: _189  and  _190
REMARK   89  A    between atoms: _190  and  _191
REMARK   90  A    between atoms: _190  and  _193
REMARK   91  A    between atoms: _195  and  _196
REMARK   92  A    between atoms: _196  and  _197
REMARK   93  A    between atoms: _196  and  _199
REMARK   94  A    between atoms: _199  and  _200
REMARK   95  A    between atoms: _203  and  _204
REMARK   96  A    between atoms: _204  and  _205
REMARK   97  A    between atoms: _204  and  _207
REMARK   98  A    between atoms: _207  and  _208
REMARK   99  A    between atoms: _208  and  _209
REMARK  100  A    between atoms: _209  and  _210
REMARK  101  A    between atoms: _212  and  _213
REMARK  102  A    between atoms: _213  and  _214
REMARK  103  A    between atoms: _213  and  _216
REMARK  104  A    between atoms: _216  and  _217
REMARK  105  A    between atoms: _217  and  _218
REMARK  106  A    between atoms: _221  and  _222
REMARK  107  A    between atoms: _222  and  _223
REMARK  108  A    between atoms: _222  and  _225
REMARK  109  A    between atoms: _225  and  _226
REMARK  110  A    between atoms: _229  and  _230
REMARK  111  A    between atoms: _230  and  _231
REMARK  112  A    between atoms: _230  and  _233
REMARK  113  A    between atoms: _233  and  _234
REMARK  114  A    between atoms: _240  and  _241
REMARK  115  A    between atoms: _241  and  _242
REMARK  116  A    between atoms: _241  and  _244
REMARK  117  A    between atoms: _244  and  _245
REMARK  118  A    between atoms: _248  and  _249
REMARK  119  A    between atoms: _249  and  _250
REMARK  120  A    between atoms: _249  and  _252
REMARK  121  A    between atoms: _252  and  _253
REMARK  122  A    between atoms: _253  and  _254
REMARK  123  A    between atoms: _254  and  _255
REMARK  124  A    between atoms: _259  and  _260
REMARK  125  A    between atoms: _260  and  _261
REMARK  126  A    between atoms: _260  and  _263
REMARK  127  A    between atoms: _263  and  _264
REMARK  128  A    between atoms: _264  and  _265
REMARK  129  A    between atoms: _268  and  _269
REMARK  130  A    between atoms: _269  and  _270
REMARK  131  A    between atoms: _269  and  _272
REMARK  132  A    between atoms: _272  and  _273
REMARK  133  A    between atoms: _276  and  _277
REMARK  134  A    between atoms: _277  and  _278
REMARK  135  A    between atoms: _277  and  _280
REMARK  136  A    between atoms: _280  and  _281
REMARK  137  A    between atoms: _284  and  _285
REMARK  138  A    between atoms: _285  and  _286
REMARK  139  A    between atoms: _285  and  _288
REMARK  140  A    between atoms: _290  and  _291
REMARK  141  A    between atoms: _291  and  _292
REMARK  142  A    between atoms: _291  and  _294
REMARK  143  A    between atoms: _294  and  _295
REMARK  144  A    between atoms: _298  and  _299
REMARK  145  A    between atoms: _299  and  _300
REMARK  146  A    between atoms: _299  and  _302
REMARK  147  A    between atoms: _304  and  _305
REMARK  148  A    between atoms: _305  and  _306
REMARK  149  A    between atoms: _305  and  _308
REMARK  150  A    between atoms: _310  and  _311
REMARK  151  A    between atoms: _311  and  _312
REMARK  152  A    between atoms: _311  and  _314
REMARK  153  A    between atoms: _314  and  _315
REMARK  154  A    between atoms: _318  and  _319
REMARK  155  A    between atoms: _319  and  _320
REMARK  156  A    between atoms: _323  and  _324
REMARK  157  A    between atoms: _324  and  _325
REMARK  158  A    between atoms: _324  and  _327
REMARK  159  A    between atoms: _327  and  _328
REMARK  160  A    between atoms: _331  and  _332
REMARK  161  A    between atoms: _332  and  _333
REMARK  162  A    between atoms: _332  and  _335
REMARK  163  A    between atoms: _335  and  _336
REMARK  164  A    between atoms: _339  and  _340
REMARK  165  A    between atoms: _340  and  _341
REMARK  166  A    between atoms: _340  and  _343
REMARK  167  A    between atoms: _343  and  _344
REMARK  168  A    between atoms: _344  and  _345
REMARK  169  A    between atoms: _345  and  _346
REMARK  170  A    between atoms: _348  and  _349
REMARK  171  A    between atoms: _349  and  _350
REMARK  172  A    between atoms: _349  and  _352
REMARK  173  A    between atoms: _352  and  _353
REMARK  174  A    between atoms: _356  and  _357
REMARK  175  A    between atoms: _357  and  _358
REMARK  176  A    between atoms: _357  and  _360
REMARK  177  A    between atoms: _360  and  _361
REMARK  178  A    between atoms: _361  and  _362
REMARK  179  A    between atoms: _362  and  _363
REMARK  180  A    between atoms: _367  and  _368
REMARK  181  A    between atoms: _368  and  _369
REMARK  182  A    between atoms: _368  and  _371
REMARK  183  A    between atoms: _371  and  _372
REMARK  184  A    between atoms: _379  and  _380
REMARK  185  A    between atoms: _380  and  _381
REMARK  186  A    between atoms: _380  and  _383
REMARK  187  A    between atoms: _383  and  _384
REMARK  188  A    between atoms: _384  and  _385
REMARK  189  A    between atoms: _388  and  _389
REMARK  190  A    between atoms: _389  and  _390
REMARK  191  A    between atoms: _389  and  _392
REMARK  192  A    between atoms: _394  and  _395
REMARK  193  A    between atoms: _395  and  _396
REMARK  194  A    between atoms: _395  and  _398
REMARK  195  A    between atoms: _398  and  _399
REMARK  196  A    between atoms: _402  and  _403
REMARK  197  A    between atoms: _403  and  _404
REMARK  198  A    between atoms: _403  and  _406
REMARK  199  A    between atoms: _409  and  _410
REMARK  200  A    between atoms: _410  and  _411
REMARK  201  A    between atoms: _410  and  _413
REMARK  202  A    between atoms: _413  and  _414
REMARK  203  A    between atoms: _418  and  _419
REMARK  204  A    between atoms: _424  and  _425
REMARK  205  A    between atoms: _425  and  _426
REMARK  206  A    between atoms: _425  and  _428
REMARK  207  A    between atoms: _430  and  _431
REMARK  208  A    between atoms: _431  and  _432
REMARK  209  A    between atoms: _431  and  _434
REMARK  210  A    between atoms: _434  and  _435
REMARK  211  A    between atoms: _435  and  _436
REMARK  212  A    between atoms: _436  and  _437
REMARK  213  A    between atoms: _439  and  _440
REMARK  214  A    between atoms: _440  and  _441
REMARK  215  A    between atoms: _440  and  _443
REMARK  216  A    between atoms: _443  and  _444
REMARK  217  A    between atoms: _447  and  _448
REMARK  218  A    between atoms: _448  and  _449
REMARK  219  A    between atoms: _448  and  _451
REMARK  220  A    between atoms: _451  and  _452
REMARK  221  A    between atoms: _455  and  _456
REMARK  222  A    between atoms: _456  and  _457
REMARK  223  A    between atoms: _456  and  _459
REMARK  224  A    between atoms: _461  and  _462
REMARK  225  A    between atoms: _462  and  _463
REMARK  226  A    between atoms: _465  and  _466
REMARK  227  A    between atoms: _466  and  _467
REMARK  228  A    between atoms: _466  and  _469
REMARK  229  A    between atoms: _469  and  _470
REMARK  230  A    between atoms: _470  and  _471
REMARK  231  A    between atoms: _471  and  _472
REMARK  232  A    between atoms: _474  and  _475
REMARK  233  A    between atoms: _475  and  _476
REMARK  234  A    between atoms: _475  and  _478
REMARK  235  A    between atoms: _478  and  _479
REMARK  236  A    between atoms: _479  and  _480
REMARK  237  A    between atoms: _483  and  _484
REMARK  238  A    between atoms: _484  and  _485
REMARK  239  A    between atoms: _484  and  _487
REMARK  240  A    between atoms: _487  and  _488
REMARK  241  A    between atoms: _491  and  _492
REMARK  242  A    between atoms: _492  and  _493
REMARK  243  A    between atoms: _492  and  _495
REMARK  244  A    between atoms: _495  and  _496
REMARK  245  A    between atoms: _501  and  _502
REMARK  246  A    between atoms: _502  and  _503
REMARK  247  A    between atoms: _502  and  _505
REMARK  248  A    between atoms: _505  and  _506
REMARK  249  A    between atoms: _509  and  _510
REMARK  250  A    between atoms: _510  and  _511
REMARK  251  A    between atoms: _510  and  _513
REMARK  252  A    between atoms: _513  and  _514
REMARK  253  A    between atoms: _517  and  _518
REMARK  254  A    between atoms: _518  and  _519
REMARK  255  A    between atoms: _518  and  _521
REMARK  256  A    between atoms: _521  and  _522
REMARK  257  A    between atoms: _525  and  _526
REMARK  258  A    between atoms: _526  and  _527
REMARK  259  A    between atoms: _526  and  _529
REMARK  260  A    between atoms: _529  and  _530
REMARK  261  A    between atoms: _534  and  _535
REMARK  262  A    between atoms: _540  and  _541
REMARK  263  A    between atoms: _541  and  _542
REMARK  264  A    between atoms: _541  and  _544
REMARK  265  A    between atoms: _544  and  _545
REMARK  266  A    between atoms: _548  and  _549
REMARK  267  A    between atoms: _549  and  _552
REMARK  268  A    between atoms: _552  and  _553
REMARK  269  A    between atoms: _553  and  _554
REMARK  270  A    between atoms: _554  and  _555
REMARK  271  A    between atoms: _568  and  _569
REMARK  272  A    between atoms: _576  and  _577
REMARK  273  A    between atoms: _576  and  _579
REMARK  274  A    between atoms: _579  and  _580
REMARK  275  A    between atoms: _583  and  _584
REMARK  276  A    between atoms: _584  and  _585
REMARK  277  A    between atoms: _584  and  _587
REMARK  278  A    between atoms: _587  and  _588
REMARK  279  A    between atoms: _588  and  _589
REMARK  280  A    between atoms: _589  and  _590
REMARK  281  A    between atoms: _594  and  _595
REMARK  282  A    between atoms: _595  and  _596
REMARK  283  A    between atoms: _595  and  _598
REMARK  284  A    between atoms: _601  and  _602
REMARK  285  A    between atoms: _602  and  _603
REMARK  286  A    between atoms: _602  and  _605
REMARK  287  A    between atoms: _605  and  _606
REMARK  288  A    between atoms: _609  and  _610
REMARK  289  A    between atoms: _610  and  _611
REMARK  290  A    between atoms: _610  and  _613
REMARK  291  A    between atoms: _616  and  _617
REMARK  292  A    between atoms: _617  and  _618
REMARK  293  A    between atoms: _617  and  _620
REMARK  294  A    between atoms: _620  and  _621
REMARK  295  A    between atoms: _624  and  _625
REMARK  296  A    between atoms: _625  and  _626
REMARK  297  A    between atoms: _625  and  _628
REMARK  298  A    between atoms: _631  and  _632
REMARK  299  A    between atoms: _632  and  _633
REMARK  300  A    between atoms: _632  and  _635
REMARK  301  A    between atoms: _635  and  _636
REMARK  302  A    between atoms: _639  and  _640
REMARK  303  A    between atoms: _640  and  _641
REMARK  304  A    between atoms: _640  and  _643
REMARK  305  A    between atoms: _646  and  _647
REMARK  306  A    between atoms: _647  and  _648
REMARK  307  A    between atoms: _650  and  _651
REMARK  308  A    between atoms: _651  and  _652
REMARK  309  A    between atoms: _651  and  _654
REMARK  310  A    between atoms: _654  and  _655
REMARK  311  A    between atoms: _658  and  _659
REMARK  312  A    between atoms: _659  and  _660
REMARK  313  A    between atoms: _662  and  _663
REMARK  314  A    between atoms: _663  and  _664
REMARK  315  A    between atoms: _663  and  _666
REMARK  316  A    between atoms: _666  and  _667
REMARK  317  A    between atoms: _667  and  _668
REMARK  318  A    between atoms: _670  and  _671
REMARK  319  A    between atoms: _671  and  _672
REMARK  320  A    between atoms: _671  and  _674
REMARK  321  A    between atoms: _677  and  _678
REMARK  322  A    between atoms: _678  and  _679
REMARK  323  A    between atoms: _678  and  _681
REMARK  324  A    between atoms: _681  and  _682
REMARK  325  A    between atoms: _682  and  _683
REMARK  326  A    between atoms: _683  and  _684
REMARK  327  A    between atoms: _686  and  _687
REMARK  328  A    between atoms: _687  and  _688
REMARK  329  A    between atoms: _691  and  _692
REMARK  330  A    between atoms: _692  and  _693
REMARK  331  A    between atoms: _692  and  _695
REMARK  332  A    between atoms: _695  and  _696
REMARK  333  A    between atoms: _699  and  _700
REMARK  334  A    between atoms: _700  and  _701
REMARK  335  A    between atoms: _700  and  _703
REMARK  336  A    between atoms: _703  and  _704
REMARK  337  A    between atoms: _707  and  _708
REMARK  338  A    between atoms: _708  and  _709
REMARK  339  A    between atoms: _708  and  _711
REMARK  340  A    between atoms: _711  and  _712
REMARK  341  A    between atoms: _715  and  _716
REMARK  342  A    between atoms: _716  and  _717
REMARK  343  A    between atoms: _716  and  _719
REMARK  344  A    between atoms: _719  and  _720
REMARK  345  A    between atoms: _723  and  _724
REMARK  346  A    between atoms: _724  and  _725
REMARK  347  A    between atoms: _724  and  _727
REMARK  348  A    between atoms: _727  and  _728
REMARK  349  A    between atoms: _731  and  _732
REMARK  350  A    between atoms: _732  and  _733
REMARK  351  A    between atoms: _732  and  _735
REMARK  352  A    between atoms: _735  and  _736
REMARK  353  A    between atoms: _739  and  _740
REMARK  354  A    between atoms: _740  and  _741
REMARK  355  A    between atoms: _743  and  _744
REMARK  356  A    between atoms: _744  and  _745
REMARK  357  A    between atoms: _744  and  _747
REMARK  358  A    between atoms: _750  and  _751
REMARK  359  A    between atoms: _751  and  _752
REMARK  360  A    between atoms: _751  and  _754
REMARK  361  A    between atoms: _754  and  _755
REMARK  362  A    between atoms: _758  and  _759
REMARK  363  A    between atoms: _759  and  _760
REMARK  364  A    between atoms: _763  and  _764
REMARK  365  A    between atoms: _764  and  _765
REMARK  366  A    between atoms: _764  and  _767
REMARK  367  A    between atoms: _767  and  _768
REMARK  368  A    between atoms: _768  and  _769
REMARK  369  A    between atoms: _769  and  _770
REMARK  370  A    between atoms: _772  and  _773
REMARK  371  A    between atoms: _773  and  _774
REMARK  372  A    between atoms: _773  and  _776
REMARK  373  A    between atoms: _778  and  _779
REMARK  374  A    between atoms: _779  and  _780
REMARK  375  A    between atoms: _782  and  _783
REMARK  376  A    between atoms: _783  and  _784
REMARK  377  A    between atoms: _783  and  _786
REMARK  378  A    between atoms: _789  and  _790
REMARK  379  A    between atoms: _790  and  _791
REMARK  380  A    between atoms: _790  and  _793
REMARK  381  A    between atoms: _793  and  _794
REMARK  382  A    between atoms: _794  and  _795
REMARK  383  A    between atoms: _795  and  _796
REMARK  384  A    between atoms: _798  and  _799
REMARK  385  A    between atoms: _799  and  _800
REMARK  386  A    between atoms: _803  and  _804
REMARK  387  A    between atoms: _804  and  _805
REMARK  388  A    between atoms: _804  and  _807
REMARK  389  A    between atoms: _807  and  _808
REMARK  390  A    between atoms: _814  and  _815
REMARK  391  A    between atoms: _815  and  _816
REMARK  392  A    between atoms: _815  and  _818
REMARK  393  A    between atoms: _818  and  _819
REMARK  394  A    between atoms: _819  and  _820
REMARK  395  A    between atoms: _822  and  _823
REMARK  396  A    between atoms: _823  and  _824
REMARK  397  A    between atoms: _823  and  _826
REMARK  398  A    between atoms: _826  and  _827
REMARK  399  A    between atoms: _827  and  _828
REMARK  400  A    between atoms: _831  and  _832
REMARK  401  A    between atoms: _832  and  _833
REMARK  402  A    between atoms: _836  and  _837
REMARK  403  A    between atoms: _837  and  _838
REMARK  404  A    between atoms: _837  and  _840
REMARK  405  A    between atoms: _840  and  _841
REMARK  406  A    between atoms: _844  and  _845
REMARK  407  A    between atoms: _845  and  _846
REMARK  408  A    between atoms: _845  and  _848
REMARK  409  A    between atoms: _848  and  _849
REMARK  410  A    between atoms: _849  and  _850
REMARK  411  A    between atoms: _853  and  _854
REMARK  412  A    between atoms: _854  and  _855
REMARK  413  A    between atoms: _858  and  _859
REMARK  414  A    between atoms: _859  and  _860
REMARK  415  A    between atoms: _862  and  _863
REMARK  416  A    between atoms: _863  and  _864
REMARK  417  A    between atoms: _867  and  _868
REMARK  418  A    between atoms: _868  and  _869
REMARK  419  A    between atoms: _868  and  _871
REMARK  420  A    between atoms: _871  and  _872
REMARK  421  A    between atoms: _875  and  _876
REMARK  422  A    between atoms: _876  and  _877
REMARK  423  A    between atoms: _876  and  _879
REMARK  424  A    between atoms: _879  and  _880
REMARK  425  A    between atoms: _883  and  _884
REMARK  426  A    between atoms: _884  and  _887
REMARK  427  A    between atoms: _906  and  _907
REMARK  428  A    between atoms: _906  and  _909
REMARK  429  A    between atoms: _909  and  _910
REMARK  430  A    between atoms: _913  and  _914
REMARK  431  A    between atoms: _914  and  _915
REMARK  432  A    between atoms: _917  and  _918
REMARK  433  A    between atoms: _918  and  _919
REMARK  434  A    between atoms: _918  and  _921
REMARK  435  A    between atoms: _921  and  _922
REMARK  436  A    between atoms: _922  and  _923
REMARK  437  A    between atoms: _926  and  _927
REMARK  438  A    between atoms: _927  and  _928
REMARK  439  A    between atoms: _927  and  _930
REMARK  440  A    between atoms: _930  and  _931
REMARK  441  A    between atoms: _937  and  _938
REMARK  442  A    between atoms: _938  and  _939
REMARK  443  A    between atoms: _941  and  _942
REMARK  444  A    between atoms: _942  and  _943
REMARK  445  A    between atoms: _942  and  _945
REMARK  446  A    between atoms: _948  and  _949
REMARK  447  A    between atoms: _949  and  _950
REMARK  448  A    between atoms: _952  and  _953
REMARK  449  A    between atoms: _953  and  _954
REMARK  450  A    between atoms: _953  and  _956
REMARK  451  A    between atoms: _956  and  _957
REMARK  452  A    between atoms: _963  and  _964
REMARK  453  A    between atoms: _964  and  _965
REMARK  454  A    between atoms: _964  and  _967
REMARK  455  A    between atoms: _967  and  _968
REMARK  456  A    between atoms: _975  and  _976
REMARK  457  A    between atoms: _976  and  _977
REMARK  458  A    between atoms: _976  and  _979
REMARK  459  A    between atoms: _981  and  _982
REMARK  460  A    between atoms: _982  and  _983
REMARK  461  A    between atoms: _986  and  _987
REMARK  462  A    between atoms: _987  and  _988
REMARK  463  A    between atoms: _987  and  _990
REMARK  464  A    between atoms: _990  and  _991
REMARK  465  A    between atoms: _998  and  _999
REMARK  466  A    between atoms: _999  and  _1000
REMARK  467  A    between atoms: _999  and  _1002
REMARK  468  A    between atoms: _1002  and  _1003
REMARK  469  A    between atoms: _1006  and  _1007
REMARK  470  A    between atoms: _1007  and  _1008
REMARK  471  A    between atoms: _1007  and  _1010
REMARK  472  A    between atoms: _1013  and  _1014
REMARK  473  A    between atoms: _1014  and  _1015
REMARK  474  A    between atoms: _1018  and  _1019
REMARK  475  A    between atoms: _1019  and  _1020
REMARK  476  A    between atoms: _1019  and  _1022
REMARK  477  A    between atoms: _1023  and  _1024
REMARK  478  A    between atoms: _1027  and  _1028
REMARK  479  A    between atoms: _1028  and  _1029
REMARK  480  A    between atoms: _1028  and  _1031
REMARK  481  A    between atoms: _1031  and  _1032
REMARK  482  A    between atoms: _1032  and  _1033
REMARK  483  A    between atoms: _1033  and  _1034
REMARK  484  A    between atoms: _1036  and  _1037
REMARK  485  A    between atoms: _1037  and  _1038
REMARK  486  A    between atoms: _1037  and  _1040
REMARK  487  A    between atoms: _1043  and  _1044
REMARK  488  A    between atoms: _1044  and  _1045
REMARK  489  A    between atoms: _1044  and  _1047
REMARK  490  A    between atoms: _1050  and  _1051
REMARK  491  A    between atoms: _1051  and  _1052
REMARK  492  A    between atoms: _1051  and  _1054
REMARK  493  A    between atoms: _1057  and  _1058
REMARK  494  A    between atoms: _1058  and  _1059
REMARK  495  A    between atoms: _1058  and  _1061
REMARK  496  A    between atoms: _1061  and  _1062
REMARK  497  A    between atoms: _1065  and  _1066
REMARK  498  A    between atoms: _1066  and  _1067
REMARK  499  A    between atoms: _1066  and  _1069
REMARK  500  A    between atoms: _1072  and  _1073
REMARK  501  A    between atoms: _1073  and  _1074
REMARK  502  A    between atoms: _1073  and  _1076
REMARK  503  A    between atoms: _1076  and  _1077
REMARK  504  A    between atoms: _1077  and  _1078
REMARK  505  A    between atoms: _1078  and  _1079
REMARK  506  A    between atoms: _1081  and  _1082
REMARK  507  A    between atoms: _1082  and  _1083
REMARK  508  A    between atoms: _1082  and  _1085
REMARK  509  A    between atoms: _1085  and  _1086
REMARK  510  A    between atoms: _1091  and  _1092
REMARK  511  A    between atoms: _1092  and  _1093
REMARK  512  A    between atoms: _1092  and  _1095
REMARK  513  A    between atoms: _1095  and  _1096
REMARK  514  A    between atoms: _1099  and  _1100
REMARK  515  A    between atoms: _1100  and  _1101
REMARK  516  A    between atoms: _1100  and  _1103
REMARK  517  A    between atoms: _1103  and  _1104
REMARK  518  A    between atoms: _1107  and  _1108
REMARK  519  A    between atoms: _1108  and  _1111
REMARK  520  A    between atoms: _1111  and  _1112
REMARK  521  A    between atoms: _1125  and  _1127
REMARK  522  A    between atoms: _1134  and  _1135
REMARK  523  A    between atoms: _1134  and  _1137
REMARK  524  A    between atoms: _1137  and  _1138
REMARK  525  A    between atoms: _1138  and  _1139
REMARK  526  A    between atoms: _1142  and  _1143
REMARK  527  A    between atoms: _1143  and  _1144
REMARK  528  A    between atoms: _1143  and  _1146
REMARK  529  A    between atoms: _1146  and  _1147
REMARK  530  A    between atoms: _1154  and  _1155
REMARK  531  A    between atoms: _1155  and  _1156
REMARK  532  A    between atoms: _1159  and  _1160
REMARK  533  A    between atoms: _1160  and  _1161
REMARK  534  A    between atoms: _1160  and  _1163
REMARK  535  A    between atoms: _1163  and  _1164
REMARK  536  A    between atoms: _1173  and  _1174
REMARK  537  A    between atoms: _1174  and  _1175
REMARK  538  A    between atoms: _1174  and  _1177
REMARK  539  A    between atoms: _1177  and  _1178
REMARK  540  A    between atoms: _1178  and  _1179
REMARK  541  A    between atoms: _1182  and  _1183
REMARK  542  A    between atoms: _1183  and  _1184
REMARK  543  A    between atoms: _1183  and  _1186
REMARK  544  A    between atoms: _1188  and  _1189
REMARK  545  A    between atoms: _1189  and  _1190
REMARK  546  A    between atoms: _1189  and  _1192
REMARK  547  A    between atoms: _1194  and  _1195
REMARK  548  A    between atoms: _1195  and  _1196
REMARK  549  A    between atoms: _1199  and  _1200
REMARK  550  A    between atoms: _1200  and  _1201
REMARK  551  A    between atoms: _1203  and  _1204
REMARK  552  A    between atoms: _1204  and  _1205
REMARK  553  A    between atoms: _1207  and  _1208
REMARK  554  A    between atoms: _1208  and  _1209
REMARK  555  A    between atoms: _1208  and  _1211
REMARK  556  A    between atoms: _1213  and  _1214
REMARK  557  A    between atoms: _1214  and  _1215
REMARK  558  A    between atoms: _1214  and  _1217
REMARK  559  A    between atoms: _1217  and  _1218
REMARK  560  A    between atoms: _1224  and  _1225
REMARK  561  A    between atoms: _1225  and  _1226
REMARK  562  A    between atoms: _1225  and  _1228
REMARK  563  A    between atoms: _1231  and  _1232
REMARK  564  A    between atoms: _1232  and  _1233
REMARK  565  A    between atoms: _1232  and  _1235
REMARK  566  A    between atoms: _1238  and  _1239
REMARK  567  A    between atoms: _1239  and  _1240
REMARK  568  A    between atoms: _1239  and  _1242
REMARK  569  A    between atoms: _1242  and  _1243
REMARK  570  A    between atoms: _1243  and  _1244
REMARK  571  A    between atoms: _1244  and  _1245
REMARK  572  A    between atoms: _1249  and  _1250
REMARK  573  A    between atoms: _1250  and  _1251
REMARK  574  A    between atoms: _1250  and  _1253
REMARK  575  A    between atoms: _1256  and  _1257
REMARK  576  A    between atoms: _1257  and  _1258
REMARK  577  A    between atoms: _1257  and  _1260
REMARK  578  A    between atoms: _1260  and  _1261
REMARK  579  A    between atoms: _1264  and  _1265
REMARK  580  A    between atoms: _1265  and  _1266
REMARK  581  A    between atoms: _1265  and  _1268
REMARK  582  A    between atoms: _1271  and  _1272
REMARK  583  A    between atoms: _1272  and  _1273
REMARK  584  A    between atoms: _1275  and  _1276
REMARK  585  A    between atoms: _1276  and  _1277
REMARK  586  A    between atoms: _1276  and  _1279
REMARK  587  A    between atoms: _1279  and  _1280
REMARK  588  A    between atoms: _1280  and  _1281
REMARK  589  A    between atoms: _1285  and  _1286
REMARK  590  A    between atoms: _1291  and  _1293
REMARK  591  A    between atoms: _1298  and  _1299
REMARK  592  A    between atoms: _1299  and  _1301
REMARK  593  A    between atoms: _1300  and  _1301
REMARK  594  A    between atoms: _1304  and  _1305
REMARK  595  A    between atoms: _1305  and  _1306
REMARK  596  A    between atoms: _1308  and  _1309
REMARK  597  A    between atoms: _1309  and  _1310
REMARK  598  A    between atoms: _1309  and  _1312
REMARK  599  A    between atoms: _1312  and  _1313
REMARK  600  A    between atoms: _1313  and  _1314
REMARK  601  A    between atoms: _1314  and  _1315
REMARK  602  A    between atoms: _1319  and  _1320
REMARK  603  A    between atoms: _1320  and  _1321
REMARK  604  A    between atoms: _1323  and  _1324
REMARK  605  A    between atoms: _1324  and  _1325
REMARK  606  A    between atoms: _1324  and  _1327
REMARK  607  A    between atoms: _1330  and  _1331
REMARK  608  A    between atoms: _1331  and  _1332
REMARK  609  A    between atoms: _1331  and  _1334
REMARK  610  A    between atoms: _1334  and  _1335
REMARK  611  A    between atoms: _1335  and  _1336
REMARK  612  A    between atoms: _1336  and  _1337
REMARK  613  A    between atoms: _1339  and  _1340
REMARK  614  A    between atoms: _1340  and  _1341
REMARK  615  A    between atoms: _1340  and  _1343
REMARK  616  A    between atoms: _1346  and  _1347
REMARK  617  A    between atoms: _1347  and  _1348
REMARK  618  A    between atoms: _1347  and  _1350
REMARK  619  A    between atoms: _1350  and  _1351
REMARK  620  A    between atoms: _1354  and  _1355
REMARK  621  A    between atoms: _1355  and  _1356
REMARK  622  A    between atoms: _1355  and  _1358
REMARK  623  A    between atoms: _1358  and  _1359
REMARK  624  A    between atoms: _1362  and  _1363
REMARK  625  A    between atoms: _1363  and  _1364
REMARK  626  A    between atoms: _1363  and  _1366
REMARK  627  A    between atoms: _1366  and  _1367
REMARK  628  A    between atoms: _1372  and  _1373
REMARK  629  A    between atoms: _1373  and  _1374
REMARK  630  A    between atoms: _1373  and  _1376
REMARK  631  A    between atoms: _1376  and  _1377
REMARK  632  A    between atoms: _1380  and  _1381
REMARK  633  A    between atoms: _1381  and  _1382
REMARK  634  A    between atoms: _1381  and  _1384
REMARK  635  A    between atoms: _1384  and  _1385
REMARK  636  A    between atoms: _1385  and  _1386
REMARK  637  A    between atoms: _1386  and  _1387
REMARK  638  A    between atoms: _1389  and  _1390
REMARK  639  A    between atoms: _1390  and  _1391
REMARK  640  A    between atoms: _1390  and  _1393
REMARK  641  A    between atoms: _1393  and  _1394
REMARK  642  A    between atoms: _1394  and  _1395
REMARK  643  A    between atoms: _1398  and  _1399
REMARK  644  A    between atoms: _1399  and  _1400
REMARK  645  A    between atoms: _1399  and  _1402
REMARK  646  A    between atoms: _1402  and  _1403
REMARK  647  A    between atoms: _1406  and  _1407
REMARK  648  A    between atoms: _1407  and  _1408
REMARK  649  A    between atoms: _1407  and  _1410
REMARK  650  A    between atoms: _1410  and  _1411
REMARK  651  A    between atoms: _1411  and  _1412
REMARK  652  A    between atoms: _1415  and  _1416
REMARK  653  A    between atoms: _1416  and  _1417
REMARK  654  A    between atoms: _1416  and  _1419
REMARK  655  A    between atoms: _1422  and  _1423
REMARK  656  A    between atoms: _1423  and  _1424
REMARK  657  A    between atoms: _1423  and  _1426
REMARK  658  A    between atoms: _1426  and  _1427
REMARK  659  A    between atoms: _1427  and  _1428
REMARK  660  A    between atoms: _1431  and  _1432
REMARK  661  A    between atoms: _1432  and  _1433
REMARK  662  A    between atoms: _1432  and  _1435
REMARK  663  A    between atoms: _1435  and  _1436
REMARK  664  A    between atoms: _1443  and  _1444
REMARK  665  A    between atoms: _1444  and  _1445
REMARK  666  A    between atoms: _1444  and  _1447
REMARK  667  A    between atoms: _1447  and  _1448
REMARK  668  A    between atoms: _1451  and  _1452
REMARK  669  A    between atoms: _1452  and  _1453
REMARK  670  A    between atoms: _1452  and  _1455
REMARK  671  A    between atoms: _1455  and  _1456
REMARK  672  A    between atoms: _1456  and  _1457
REMARK  673  A    between atoms: _1460  and  _1461
REMARK  674  A    between atoms: _1461  and  _1462
REMARK  675  A    between atoms: _1461  and  _1464
REMARK  676  A    between atoms: _1464  and  _1465
REMARK  677  A    between atoms: _1465  and  _1466
REMARK  678  A    between atoms: _1469  and  _1470
REMARK  679  A    between atoms: _1470  and  _1471
REMARK  680  A    between atoms: _1470  and  _1473
REMARK  681  A    between atoms: _1473  and  _1474
REMARK  682  A    between atoms: _1474  and  _1475
REMARK  683  A    between atoms: _1475  and  _1476
REMARK  684  A    between atoms: _1480  and  _1481
REMARK  685  A    between atoms: _1481  and  _1482
REMARK  686  A    between atoms: _1481  and  _1484
REMARK  687  A    between atoms: _1484  and  _1485
REMARK  688  A    between atoms: _1485  and  _1486
REMARK  689  A    between atoms: _1486  and  _1487
REMARK  690  A    between atoms: _1491  and  _1492
REMARK  691  A    between atoms: _1492  and  _1493
REMARK  692  A    between atoms: _1492  and  _1495
REMARK  693  A    between atoms: _1495  and  _1496
REMARK  694  A    between atoms: _1499  and  _1500
REMARK  695  A    between atoms: _1500  and  _1501
REMARK  696  A    between atoms: _1500  and  _1503
REMARK  697  A    between atoms: _1503  and  _1504
REMARK  698  A    between atoms: _1504  and  _1505
REMARK  699  A    between atoms: _1505  and  _1506
REMARK  700  A    between atoms: _1508  and  _1509
REMARK  701  A    between atoms: _1509  and  _1510
REMARK  702  A    between atoms: _1509  and  _1512
REMARK  703  A    between atoms: _1512  and  _1513
REMARK  704  A    between atoms: _1513  and  _1514
REMARK  705  A    between atoms: _1517  and  _1518
REMARK  706  A    between atoms: _1518  and  _1519
REMARK  707  A    between atoms: _1518  and  _1521
REMARK  708  A    between atoms: _1521  and  _1522
REMARK  709  A    between atoms: _1525  and  _1526
REMARK  710  A    between atoms: _1526  and  _1527
REMARK  711  A    between atoms: _1526  and  _1529
REMARK  712  A    between atoms: _1532  and  _1533
REMARK  713  A    between atoms: _1533  and  _1534
REMARK  714  A    between atoms: _1533  and  _1536
REMARK  715  A    between atoms: _1536  and  _1537
REMARK  716  A    between atoms: _1537  and  _1538
REMARK  717  A    between atoms: _1538  and  _1539
REMARK  718  A    between atoms: _1541  and  _1542
REMARK  719  A    between atoms: _1542  and  _1543
REMARK  720  A    between atoms: _1542  and  _1545
REMARK  721  A    between atoms: _1545  and  _1546
REMARK  722  A    between atoms: _1546  and  _1547
REMARK  723  A    between atoms: _1547  and  _1548
REMARK  724  A    between atoms: _1550  and  _1551
REMARK  725  A    between atoms: _1551  and  _1552
REMARK  726  A    between atoms: _1551  and  _1554
REMARK  727  A    between atoms: _1554  and  _1555
REMARK  728  A    between atoms: _1560  and  _1561
REMARK  729  A    between atoms: _1561  and  _1562
REMARK  730  A    between atoms: _1561  and  _1564
REMARK  731  A    between atoms: _1566  and  _1567
REMARK  732  A    between atoms: _1567  and  _1568
REMARK  733  A    between atoms: _1567  and  _1570
REMARK  734  A    between atoms: _1570  and  _1571
REMARK  735  A    between atoms: _1571  and  _1572
REMARK  736  A    between atoms: _1575  and  _1576
REMARK  737  A    between atoms: _1576  and  _1577
REMARK  738  A    between atoms: _1576  and  _1579
REMARK  739  A    between atoms: _1579  and  _1580
REMARK  740  A    between atoms: _1586  and  _1587
REMARK  741  A    between atoms: _1587  and  _1588
REMARK  742  A    between atoms: _1587  and  _1590
REMARK  743  A    between atoms: _1590  and  _1591
REMARK  744  A    between atoms: _1594  and  _1595
REMARK  745  A    between atoms: _1595  and  _1596
REMARK  746  A    between atoms: _1598  and  _1599
REMARK  747  A    between atoms: _1599  and  _1600
REMARK  748  A    between atoms: _1599  and  _1602
REMARK  749  A    between atoms: _1602  and  _1603
REMARK  750  A    between atoms: _1611  and  _1612
REMARK  751  A    between atoms: _1617  and  _1618
REMARK  752  A    between atoms: _1618  and  _1619
REMARK  753  A    between atoms: _1618  and  _1621
REMARK  754  A    between atoms: _1621  and  _1622
REMARK  755  A    between atoms: _1625  and  _1626
REMARK  756  A    between atoms: _1626  and  _1627
REMARK  757  A    between atoms: _1626  and  _1629
REMARK  758  A    between atoms: _1632  and  _1633
REMARK  759  A    between atoms: _1633  and  _1634
REMARK  760  A    between atoms: _1633  and  _1636
REMARK  761  A    between atoms: _1636  and  _1637
REMARK  762  A    between atoms: _1640  and  _1641
REMARK  763  A    between atoms: _1641  and  _1642
REMARK  764  A    between atoms: _1641  and  _1644
REMARK  765  A    between atoms: _1644  and  _1645
REMARK  766  A    between atoms: _1651  and  _1652
REMARK  767  A    between atoms: _1652  and  _1653
REMARK  768  A    between atoms: _1652  and  _1655
REMARK  769  A    between atoms: _1658  and  _1659
REMARK  770  A    between atoms: _1659  and  _1660
REMARK  771  A    between atoms: _1659  and  _1662
REMARK  772  A    between atoms: _1662  and  _1663
REMARK  773  A    between atoms: _1663  and  _1664
REMARK  774  A    between atoms: _1667  and  _1668
REMARK  775  A    between atoms: _1668  and  _1669
REMARK  776  A    between atoms: _1668  and  _1671
REMARK  777  A    between atoms: _1671  and  _1672
REMARK  778  A    between atoms: _1672  and  _1673
REMARK  779  A    between atoms: _1673  and  _1674
REMARK                            x       y       z     vdW  Elec       q    Type
REMARK                         _______ _______ _______ _____ _____    ______ ____
ROOT
ATOM      1  O   HOH     1      -4.074   9.988  32.915  0.00  0.00    +0.000 OA
ENDROOT
TORSDOF 0
REMARK  Name = /Users/mlugowska/PhD/ML_residence_time_prediction/protein_files/5NYH_protein.pdb
REMARK  779 active torsions:
REMARK  status: ('A' for Active; 'I' for Inactive)
REMARK    1  A    between atoms: _2  and  _3
REMARK    2  A    between atoms: _2  and  _5
REMARK    3  A    between atoms: _5  and  _6
REMARK    4  A    between atoms: _6  and  _7
REMARK    5  A    between atoms: _10  and  _11
REMARK    6  A    between atoms: _11  and  _12
REMARK    7  A    between atoms: _11  and  _14
REMARK    8  A    between atoms: _17  and  _18
REMARK    9  A    between atoms: _18  and  _19
REMARK   10  A    between atoms: _18  and  _21
REMARK   11  A    between atoms: _21  and  _22
REMARK   12  A    between atoms: _22  and  _23
REMARK   13  A    between atoms: _26  and  _27
REMARK   14  A    between atoms: _27  and  _28
REMARK   15  A    between atoms: _27  and  _30
REMARK   16  A    between atoms: _33  and  _34
REMARK   17  A    between atoms: _34  and  _35
REMARK   18  A    between atoms: _34  and  _37
REMARK   19  A    between atoms: _37  and  _38
REMARK   20  A    between atoms: _44  and  _45
REMARK   21  A    between atoms: _45  and  _46
REMARK   22  A    between atoms: _49  and  _50
REMARK   23  A    between atoms: _50  and  _51
REMARK   24  A    between atoms: _50  and  _53
REMARK   25  A    between atoms: _53  and  _54
REMARK   26  A    between atoms: _60  and  _61
REMARK   27  A    between atoms: _61  and  _62
REMARK   28  A    between atoms: _61  and  _64
REMARK   29  A    between atoms: _64  and  _65
REMARK   30  A    between atoms: _65  and  _66
REMARK   31  A    between atoms: _69  and  _70
REMARK   32  A    between atoms: _70  and  _71
REMARK   33  A    between atoms: _74  and  _75
REMARK   34  A    between atoms: _75  and  _76
REMARK   35  A    between atoms: _75  and  _78
REMARK   36  A    between atoms: _78  and  _79
REMARK   37  A    between atoms: _79  and  _80
REMARK   38  A    between atoms: _83  and  _84
REMARK   39  A    between atoms: _84  and  _85
REMARK   40  A    between atoms: _84  and  _87
REMARK   41  A    between atoms: _87  and  _88
REMARK   42  A    between atoms: _91  and  _92
REMARK   43  A    between atoms: _92  and  _93
REMARK   44  A    between atoms: _96  and  _97
REMARK   45  A    between atoms: _97  and  _98
REMARK   46  A    between atoms: _97  and  _100
REMARK   47  A    between atoms: _100  and  _101
REMARK   48  A    between atoms: _101  and  _102
REMARK   49  A    between atoms: _105  and  _106
REMARK   50  A    between atoms: _106  and  _107
REMARK   51  A    between atoms: _106  and  _109
REMARK   52  A    between atoms: _109  and  _110
REMARK   53  A    between atoms: _113  and  _114
REMARK   54  A    between atoms: _114  and  _115
REMARK   55  A    between atoms: _114  and  _117
REMARK   56  A    between atoms: _117  and  _118
REMARK   57  A    between atoms: _118  and  _119
REMARK   58  A    between atoms: _121  and  _122
REMARK   59  A    between atoms: _122  and  _123
REMARK   60  A    between atoms: _122  and  _125
REMARK   61  A    between atoms: _127  and  _128
REMARK   62  A    between atoms: _128  and  _129
REMARK   63  A    between atoms: _128  and  _131
REMARK   64  A    between atoms: _131  and  _132
REMARK   65  A    between atoms: _135  and  _136
REMARK   66  A    between atoms: _136  and  _137
REMARK   67  A    between atoms: _136  and  _139
REMARK   68  A    between atoms: _139  and  _140
REMARK   69  A    between atoms: _143  and  _144
REMARK   70  A    between atoms: _144  and  _145
REMARK   71  A    between atoms: _144  and  _147
REMARK   72  A    between atoms: _147  and  _148
REMARK   73  A    between atoms: _151  and  _152
REMARK   74  A    between atoms: _152  and  _153
REMARK   75  A    between atoms: _152  and  _155
REMARK   76  A    between atoms: _155  and  _156
REMARK   77  A    between atoms: _159  and  _160
REMARK   78  A    between atoms: _160  and  _161
REMARK   79  A    between atoms: _160  and  _163
REMARK   80  A    between atoms: _166  and  _167
REMARK   81  A    between atoms: _167  and  _168
REMARK   82  A    between atoms: _167  and  _170
REMARK   83  A    between atoms: _170  and  _171
REMARK   84  A    between atoms: _177  and  _178
REMARK   85  A    between atoms: _178  and  _179
REMARK   86  A    between atoms: _178  and  _181
REMARK   87  A    between atoms: _181  and  _182
REMARK   88  A    between atoms: _189  and  _190
REMARK   89  A    between atoms: _190  and  _191
REMARK   90  A    between atoms: _190  and  _193
REMARK   91  A    between atoms: _195  and  _196
REMARK   92  A    between atoms: _196  and  _197
REMARK   93  A    between atoms: _196  and  _199
REMARK   94  A    between atoms: _199  and  _200
REMARK   95  A    between atoms: _203  and  _204
REMARK   96  A    between atoms: _204  and  _205
REMARK   97  A    between atoms: _204  and  _207
REMARK   98  A    between atoms: _207  and  _208
REMARK   99  A    between atoms: _208  and  _209
REMARK  100  A    between atoms: _209  and  _210
REMARK  101  A    between atoms: _212  and  _213
REMARK  102  A    between atoms: _213  and  _214
REMARK  103  A    between atoms: _213  and  _216
REMARK  104  A    between atoms: _216  and  _217
REMARK  105  A    between atoms: _217  and  _218
REMARK  106  A    between atoms: _221  and  _222
REMARK  107  A    between atoms: _222  and  _223
REMARK  108  A    between atoms: _222  and  _225
REMARK  109  A    between atoms: _225  and  _226
REMARK  110  A    between atoms: _229  and  _230
REMARK  111  A    between atoms: _230  and  _231
REMARK  112  A    between atoms: _230  and  _233
REMARK  113  A    between atoms: _233  and  _234
REMARK  114  A    between atoms: _240  and  _241
REMARK  115  A    between atoms: _241  and  _242
REMARK  116  A    between atoms: _241  and  _244
REMARK  117  A    between atoms: _244  and  _245
REMARK  118  A    between atoms: _248  and  _249
REMARK  119  A    between atoms: _249  and  _250
REMARK  120  A    between atoms: _249  and  _252
REMARK  121  A    between atoms: _252  and  _253
REMARK  122  A    between atoms: _253  and  _254
REMARK  123  A    between atoms: _254  and  _255
REMARK  124  A    between atoms: _259  and  _260
REMARK  125  A    between atoms: _260  and  _261
REMARK  126  A    between atoms: _260  and  _263
REMARK  127  A    between atoms: _263  and  _264
REMARK  128  A    between atoms: _264  and  _265
REMARK  129  A    between atoms: _268  and  _269
REMARK  130  A    between atoms: _269  and  _270
REMARK  131  A    between atoms: _269  and  _272
REMARK  132  A    between atoms: _272  and  _273
REMARK  133  A    between atoms: _276  and  _277
REMARK  134  A    between atoms: _277  and  _278
REMARK  135  A    between atoms: _277  and  _280
REMARK  136  A    between atoms: _280  and  _281
REMARK  137  A    between atoms: _284  and  _285
REMARK  138  A    between atoms: _285  and  _286
REMARK  139  A    between atoms: _285  and  _288
REMARK  140  A    between atoms: _290  and  _291
REMARK  141  A    between atoms: _291  and  _292
REMARK  142  A    between atoms: _291  and  _294
REMARK  143  A    between atoms: _294  and  _295
REMARK  144  A    between atoms: _298  and  _299
REMARK  145  A    between atoms: _299  and  _300
REMARK  146  A    between atoms: _299  and  _302
REMARK  147  A    between atoms: _304  and  _305
REMARK  148  A    between atoms: _305  and  _306
REMARK  149  A    between atoms: _305  and  _308
REMARK  150  A    between atoms: _310  and  _311
REMARK  151  A    between atoms: _311  and  _312
REMARK  152  A    between atoms: _311  and  _314
REMARK  153  A    between atoms: _314  and  _315
REMARK  154  A    between atoms: _318  and  _319
REMARK  155  A    between atoms: _319  and  _320
REMARK  156  A    between atoms: _323  and  _324
REMARK  157  A    between atoms: _324  and  _325
REMARK  158  A    between atoms: _324  and  _327
REMARK  159  A    between atoms: _327  and  _328
REMARK  160  A    between atoms: _331  and  _332
REMARK  161  A    between atoms: _332  and  _333
REMARK  162  A    between atoms: _332  and  _335
REMARK  163  A    between atoms: _335  and  _336
REMARK  164  A    between atoms: _339  and  _340
REMARK  165  A    between atoms: _340  and  _341
REMARK  166  A    between atoms: _340  and  _343
REMARK  167  A    between atoms: _343  and  _344
REMARK  168  A    between atoms: _344  and  _345
REMARK  169  A    between atoms: _345  and  _346
REMARK  170  A    between atoms: _348  and  _349
REMARK  171  A    between atoms: _349  and  _350
REMARK  172  A    between atoms: _349  and  _352
REMARK  173  A    between atoms: _352  and  _353
REMARK  174  A    between atoms: _356  and  _357
REMARK  175  A    between atoms: _357  and  _358
REMARK  176  A    between atoms: _357  and  _360
REMARK  177  A    between atoms: _360  and  _361
REMARK  178  A    between atoms: _361  and  _362
REMARK  179  A    between atoms: _362  and  _363
REMARK  180  A    between atoms: _367  and  _368
REMARK  181  A    between atoms: _368  and  _369
REMARK  182  A    between atoms: _368  and  _371
REMARK  183  A    between atoms: _371  and  _372
REMARK  184  A    between atoms: _379  and  _380
REMARK  185  A    between atoms: _380  and  _381
REMARK  186  A    between atoms: _380  and  _383
REMARK  187  A    between atoms: _383  and  _384
REMARK  188  A    between atoms: _384  and  _385
REMARK  189  A    between atoms: _388  and  _389
REMARK  190  A    between atoms: _389  and  _390
REMARK  191  A    between atoms: _389  and  _392
REMARK  192  A    between atoms: _394  and  _395
REMARK  193  A    between atoms: _395  and  _396
REMARK  194  A    between atoms: _395  and  _398
REMARK  195  A    between atoms: _398  and  _399
REMARK  196  A    between atoms: _402  and  _403
REMARK  197  A    between atoms: _403  and  _404
REMARK  198  A    between atoms: _403  and  _406
REMARK  199  A    between atoms: _409  and  _410
REMARK  200  A    between atoms: _410  and  _411
REMARK  201  A    between atoms: _410  and  _413
REMARK  202  A    between atoms: _413  and  _414
REMARK  203  A    between atoms: _418  and  _419
REMARK  204  A    between atoms: _424  and  _425
REMARK  205  A    between atoms: _425  and  _426
REMARK  206  A    between atoms: _425  and  _428
REMARK  207  A    between atoms: _430  and  _431
REMARK  208  A    between atoms: _431  and  _432
REMARK  209  A    between atoms: _431  and  _434
REMARK  210  A    between atoms: _434  and  _435
REMARK  211  A    between atoms: _435  and  _436
REMARK  212  A    between atoms: _436  and  _437
REMARK  213  A    between atoms: _439  and  _440
REMARK  214  A    between atoms: _440  and  _441
REMARK  215  A    between atoms: _440  and  _443
REMARK  216  A    between atoms: _443  and  _444
REMARK  217  A    between atoms: _447  and  _448
REMARK  218  A    between atoms: _448  and  _449
REMARK  219  A    between atoms: _448  and  _451
REMARK  220  A    between atoms: _451  and  _452
REMARK  221  A    between atoms: _455  and  _456
REMARK  222  A    between atoms: _456  and  _457
REMARK  223  A    between atoms: _456  and  _459
REMARK  224  A    between atoms: _461  and  _462
REMARK  225  A    between atoms: _462  and  _463
REMARK  226  A    between atoms: _465  and  _466
REMARK  227  A    between atoms: _466  and  _467
REMARK  228  A    between atoms: _466  and  _469
REMARK  229  A    between atoms: _469  and  _470
REMARK  230  A    between atoms: _470  and  _471
REMARK  231  A    between atoms: _471  and  _472
REMARK  232  A    between atoms: _474  and  _475
REMARK  233  A    between atoms: _475  and  _476
REMARK  234  A    between atoms: _475  and  _478
REMARK  235  A    between atoms: _478  and  _479
REMARK  236  A    between atoms: _479  and  _480
REMARK  237  A    between atoms: _483  and  _484
REMARK  238  A    between atoms: _484  and  _485
REMARK  239  A    between atoms: _484  and  _487
REMARK  240  A    between atoms: _487  and  _488
REMARK  241  A    between atoms: _491  and  _492
REMARK  242  A    between atoms: _492  and  _493
REMARK  243  A    between atoms: _492  and  _495
REMARK  244  A    between atoms: _495  and  _496
REMARK  245  A    between atoms: _501  and  _502
REMARK  246  A    between atoms: _502  and  _503
REMARK  247  A    between atoms: _502  and  _505
REMARK  248  A    between atoms: _505  and  _506
REMARK  249  A    between atoms: _509  and  _510
REMARK  250  A    between atoms: _510  and  _511
REMARK  251  A    between atoms: _510  and  _513
REMARK  252  A    between atoms: _513  and  _514
REMARK  253  A    between atoms: _517  and  _518
REMARK  254  A    between atoms: _518  and  _519
REMARK  255  A    between atoms: _518  and  _521
REMARK  256  A    between atoms: _521  and  _522
REMARK  257  A    between atoms: _525  and  _526
REMARK  258  A    between atoms: _526  and  _527
REMARK  259  A    between atoms: _526  and  _529
REMARK  260  A    between atoms: _529  and  _530
REMARK  261  A    between atoms: _534  and  _535
REMARK  262  A    between atoms: _540  and  _541
REMARK  263  A    between atoms: _541  and  _542
REMARK  264  A    between atoms: _541  and  _544
REMARK  265  A    between atoms: _544  and  _545
REMARK  266  A    between atoms: _548  and  _549
REMARK  267  A    between atoms: _549  and  _552
REMARK  268  A    between atoms: _552  and  _553
REMARK  269  A    between atoms: _553  and  _554
REMARK  270  A    between atoms: _554  and  _555
REMARK  271  A    between atoms: _568  and  _569
REMARK  272  A    between atoms: _576  and  _577
REMARK  273  A    between atoms: _576  and  _579
REMARK  274  A    between atoms: _579  and  _580
REMARK  275  A    between atoms: _583  and  _584
REMARK  276  A    between atoms: _584  and  _585
REMARK  277  A    between atoms: _584  and  _587
REMARK  278  A    between atoms: _587  and  _588
REMARK  279  A    between atoms: _588  and  _589
REMARK  280  A    between atoms: _589  and  _590
REMARK  281  A    between atoms: _594  and  _595
REMARK  282  A    between atoms: _595  and  _596
REMARK  283  A    between atoms: _595  and  _598
REMARK  284  A    between atoms: _601  and  _602
REMARK  285  A    between atoms: _602  and  _603
REMARK  286  A    between atoms: _602  and  _605
REMARK  287  A    between atoms: _605  and  _606
REMARK  288  A    between atoms: _609  and  _610
REMARK  289  A    between atoms: _610  and  _611
REMARK  290  A    between atoms: _610  and  _613
REMARK  291  A    between atoms: _616  and  _617
REMARK  292  A    between atoms: _617  and  _618
REMARK  293  A    between atoms: _617  and  _620
REMARK  294  A    between atoms: _620  and  _621
REMARK  295  A    between atoms: _624  and  _625
REMARK  296  A    between atoms: _625  and  _626
REMARK  297  A    between atoms: _625  and  _628
REMARK  298  A    between atoms: _631  and  _632
REMARK  299  A    between atoms: _632  and  _633
REMARK  300  A    between atoms: _632  and  _635
REMARK  301  A    between atoms: _635  and  _636
REMARK  302  A    between atoms: _639  and  _640
REMARK  303  A    between atoms: _640  and  _641
REMARK  304  A    between atoms: _640  and  _643
REMARK  305  A    between atoms: _646  and  _647
REMARK  306  A    between atoms: _647  and  _648
REMARK  307  A    between atoms: _650  and  _651
REMARK  308  A    between atoms: _651  and  _652
REMARK  309  A    between atoms: _651  and  _654
REMARK  310  A    between atoms: _654  and  _655
REMARK  311  A    between atoms: _658  and  _659
REMARK  312  A    between atoms: _659  and  _660
REMARK  313  A    between atoms: _662  and  _663
REMARK  314  A    between atoms: _663  and  _664
REMARK  315  A    between atoms: _663  and  _666
REMARK  316  A    between atoms: _666  and  _667
REMARK  317  A    between atoms: _667  and  _668
REMARK  318  A    between atoms: _670  and  _671
REMARK  319  A    between atoms: _671  and  _672
REMARK  320  A    between atoms: _671  and  _674
REMARK  321  A    between atoms: _677  and  _678
REMARK  322  A    between atoms: _678  and  _679
REMARK  323  A    between atoms: _678  and  _681
REMARK  324  A    between atoms: _681  and  _682
REMARK  325  A    between atoms: _682  and  _683
REMARK  326  A    between atoms: _683  and  _684
REMARK  327  A    between atoms: _686  and  _687
REMARK  328  A    between atoms: _687  and  _688
REMARK  329  A    between atoms: _691  and  _692
REMARK  330  A    between atoms: _692  and  _693
REMARK  331  A    between atoms: _692  and  _695
REMARK  332  A    between atoms: _695  and  _696
REMARK  333  A    between atoms: _699  and  _700
REMARK  334  A    between atoms: _700  and  _701
REMARK  335  A    between atoms: _700  and  _703
REMARK  336  A    between atoms: _703  and  _704
REMARK  337  A    between atoms: _707  and  _708
REMARK  338  A    between atoms: _708  and  _709
REMARK  339  A    between atoms: _708  and  _711
REMARK  340  A    between atoms: _711  and  _712
REMARK  341  A    between atoms: _715  and  _716
REMARK  342  A    between atoms: _716  and  _717
REMARK  343  A    between atoms: _716  and  _719
REMARK  344  A    between atoms: _719  and  _720
REMARK  345  A    between atoms: _723  and  _724
REMARK  346  A    between atoms: _724  and  _725
REMARK  347  A    between atoms: _724  and  _727
REMARK  348  A    between atoms: _727  and  _728
REMARK  349  A    between atoms: _731  and  _732
REMARK  350  A    between atoms: _732  and  _733
REMARK  351  A    between atoms: _732  and  _735
REMARK  352  A    between atoms: _735  and  _736
REMARK  353  A    between atoms: _739  and  _740
REMARK  354  A    between atoms: _740  and  _741
REMARK  355  A    between atoms: _743  and  _744
REMARK  356  A    between atoms: _744  and  _745
REMARK  357  A    between atoms: _744  and  _747
REMARK  358  A    between atoms: _750  and  _751
REMARK  359  A    between atoms: _751  and  _752
REMARK  360  A    between atoms: _751  and  _754
REMARK  361  A    between atoms: _754  and  _755
REMARK  362  A    between atoms: _758  and  _759
REMARK  363  A    between atoms: _759  and  _760
REMARK  364  A    between atoms: _763  and  _764
REMARK  365  A    between atoms: _764  and  _765
REMARK  366  A    between atoms: _764  and  _767
REMARK  367  A    between atoms: _767  and  _768
REMARK  368  A    between atoms: _768  and  _769
REMARK  369  A    between atoms: _769  and  _770
REMARK  370  A    between atoms: _772  and  _773
REMARK  371  A    between atoms: _773  and  _774
REMARK  372  A    between atoms: _773  and  _776
REMARK  373  A    between atoms: _778  and  _779
REMARK  374  A    between atoms: _779  and  _780
REMARK  375  A    between atoms: _782  and  _783
REMARK  376  A    between atoms: _783  and  _784
REMARK  377  A    between atoms: _783  and  _786
REMARK  378  A    between atoms: _789  and  _790
REMARK  379  A    between atoms: _790  and  _791
REMARK  380  A    between atoms: _790  and  _793
REMARK  381  A    between atoms: _793  and  _794
REMARK  382  A    between atoms: _794  and  _795
REMARK  383  A    between atoms: _795  and  _796
REMARK  384  A    between atoms: _798  and  _799
REMARK  385  A    between atoms: _799  and  _800
REMARK  386  A    between atoms: _803  and  _804
REMARK  387  A    between atoms: _804  and  _805
REMARK  388  A    between atoms: _804  and  _807
REMARK  389  A    between atoms: _807  and  _808
REMARK  390  A    between atoms: _814  and  _815
REMARK  391  A    between atoms: _815  and  _816
REMARK  392  A    between atoms: _815  and  _818
REMARK  393  A    between atoms: _818  and  _819
REMARK  394  A    between atoms: _819  and  _820
REMARK  395  A    between atoms: _822  and  _823
REMARK  396  A    between atoms: _823  and  _824
REMARK  397  A    between atoms: _823  and  _826
REMARK  398  A    between atoms: _826  and  _827
REMARK  399  A    between atoms: _827  and  _828
REMARK  400  A    between atoms: _831  and  _832
REMARK  401  A    between atoms: _832  and  _833
REMARK  402  A    between atoms: _836  and  _837
REMARK  403  A    between atoms: _837  and  _838
REMARK  404  A    between atoms: _837  and  _840
REMARK  405  A    between atoms: _840  and  _841
REMARK  406  A    between atoms: _844  and  _845
REMARK  407  A    between atoms: _845  and  _846
REMARK  408  A    between atoms: _845  and  _848
REMARK  409  A    between atoms: _848  and  _849
REMARK  410  A    between atoms: _849  and  _850
REMARK  411  A    between atoms: _853  and  _854
REMARK  412  A    between atoms: _854  and  _855
REMARK  413  A    between atoms: _858  and  _859
REMARK  414  A    between atoms: _859  and  _860
REMARK  415  A    between atoms: _862  and  _863
REMARK  416  A    between atoms: _863  and  _864
REMARK  417  A    between atoms: _867  and  _868
REMARK  418  A    between atoms: _868  and  _869
REMARK  419  A    between atoms: _868  and  _871
REMARK  420  A    between atoms: _871  and  _872
REMARK  421  A    between atoms: _875  and  _876
REMARK  422  A    between atoms: _876  and  _877
REMARK  423  A    between atoms: _876  and  _879
REMARK  424  A    between atoms: _879  and  _880
REMARK  425  A    between atoms: _883  and  _884
REMARK  426  A    between atoms: _884  and  _887
REMARK  427  A    between atoms: _906  and  _907
REMARK  428  A    between atoms: _906  and  _909
REMARK  429  A    between atoms: _909  and  _910
REMARK  430  A    between atoms: _913  and  _914
REMARK  431  A    between atoms: _914  and  _915
REMARK  432  A    between atoms: _917  and  _918
REMARK  433  A    between atoms: _918  and  _919
REMARK  434  A    between atoms: _918  and  _921
REMARK  435  A    between atoms: _921  and  _922
REMARK  436  A    between atoms: _922  and  _923
REMARK  437  A    between atoms: _926  and  _927
REMARK  438  A    between atoms: _927  and  _928
REMARK  439  A    between atoms: _927  and  _930
REMARK  440  A    between atoms: _930  and  _931
REMARK  441  A    between atoms: _937  and  _938
REMARK  442  A    between atoms: _938  and  _939
REMARK  443  A    between atoms: _941  and  _942
REMARK  444  A    between atoms: _942  and  _943
REMARK  445  A    between atoms: _942  and  _945
REMARK  446  A    between atoms: _948  and  _949
REMARK  447  A    between atoms: _949  and  _950
REMARK  448  A    between atoms: _952  and  _953
REMARK  449  A    between atoms: _953  and  _954
REMARK  450  A    between atoms: _953  and  _956
REMARK  451  A    between atoms: _956  and  _957
REMARK  452  A    between atoms: _963  and  _964
REMARK  453  A    between atoms: _964  and  _965
REMARK  454  A    between atoms: _964  and  _967
REMARK  455  A    between atoms: _967  and  _968
REMARK  456  A    between atoms: _975  and  _976
REMARK  457  A    between atoms: _976  and  _977
REMARK  458  A    between atoms: _976  and  _979
REMARK  459  A    between atoms: _981  and  _982
REMARK  460  A    between atoms: _982  and  _983
REMARK  461  A    between atoms: _986  and  _987
REMARK  462  A    between atoms: _987  and  _988
REMARK  463  A    between atoms: _987  and  _990
REMARK  464  A    between atoms: _990  and  _991
REMARK  465  A    between atoms: _998  and  _999
REMARK  466  A    between atoms: _999  and  _1000
REMARK  467  A    between atoms: _999  and  _1002
REMARK  468  A    between atoms: _1002  and  _1003
REMARK  469  A    between atoms: _1006  and  _1007
REMARK  470  A    between atoms: _1007  and  _1008
REMARK  471  A    between atoms: _1007  and  _1010
REMARK  472  A    between atoms: _1013  and  _1014
REMARK  473  A    between atoms: _1014  and  _1015
REMARK  474  A    between atoms: _1018  and  _1019
REMARK  475  A    between atoms: _1019  and  _1020
REMARK  476  A    between atoms: _1019  and  _1022
REMARK  477  A    between atoms: _1023  and  _1024
REMARK  478  A    between atoms: _1027  and  _1028
REMARK  479  A    between atoms: _1028  and  _1029
REMARK  480  A    between atoms: _1028  and  _1031
REMARK  481  A    between atoms: _1031  and  _1032
REMARK  482  A    between atoms: _1032  and  _1033
REMARK  483  A    between atoms: _1033  and  _1034
REMARK  484  A    between atoms: _1036  and  _1037
REMARK  485  A    between atoms: _1037  and  _1038
REMARK  486  A    between atoms: _1037  and  _1040
REMARK  487  A    between atoms: _1043  and  _1044
REMARK  488  A    between atoms: _1044  and  _1045
REMARK  489  A    between atoms: _1044  and  _1047
REMARK  490  A    between atoms: _1050  and  _1051
REMARK  491  A    between atoms: _1051  and  _1052
REMARK  492  A    between atoms: _1051  and  _1054
REMARK  493  A    between atoms: _1057  and  _1058
REMARK  494  A    between atoms: _1058  and  _1059
REMARK  495  A    between atoms: _1058  and  _1061
REMARK  496  A    between atoms: _1061  and  _1062
REMARK  497  A    between atoms: _1065  and  _1066
REMARK  498  A    between atoms: _1066  and  _1067
REMARK  499  A    between atoms: _1066  and  _1069
REMARK  500  A    between atoms: _1072  and  _1073
REMARK  501  A    between atoms: _1073  and  _1074
REMARK  502  A    between atoms: _1073  and  _1076
REMARK  503  A    between atoms: _1076  and  _1077
REMARK  504  A    between atoms: _1077  and  _1078
REMARK  505  A    between atoms: _1078  and  _1079
REMARK  506  A    between atoms: _1081  and  _1082
REMARK  507  A    between atoms: _1082  and  _1083
REMARK  508  A    between atoms: _1082  and  _1085
REMARK  509  A    between atoms: _1085  and  _1086
REMARK  510  A    between atoms: _1091  and  _1092
REMARK  511  A    between atoms: _1092  and  _1093
REMARK  512  A    between atoms: _1092  and  _1095
REMARK  513  A    between atoms: _1095  and  _1096
REMARK  514  A    between atoms: _1099  and  _1100
REMARK  515  A    between atoms: _1100  and  _1101
REMARK  516  A    between atoms: _1100  and  _1103
REMARK  517  A    between atoms: _1103  and  _1104
REMARK  518  A    between atoms: _1107  and  _1108
REMARK  519  A    between atoms: _1108  and  _1111
REMARK  520  A    between atoms: _1111  and  _1112
REMARK  521  A    between atoms: _1125  and  _1127
REMARK  522  A    between atoms: _1134  and  _1135
REMARK  523  A    between atoms: _1134  and  _1137
REMARK  524  A    between atoms: _1137  and  _1138
REMARK  525  A    between atoms: _1138  and  _1139
REMARK  526  A    between atoms: _1142  and  _1143
REMARK  527  A    between atoms: _1143  and  _1144
REMARK  528  A    between atoms: _1143  and  _1146
REMARK  529  A    between atoms: _1146  and  _1147
REMARK  530  A    between atoms: _1154  and  _1155
REMARK  531  A    between atoms: _1155  and  _1156
REMARK  532  A    between atoms: _1159  and  _1160
REMARK  533  A    between atoms: _1160  and  _1161
REMARK  534  A    between atoms: _1160  and  _1163
REMARK  535  A    between atoms: _1163  and  _1164
REMARK  536  A    between atoms: _1173  and  _1174
REMARK  537  A    between atoms: _1174  and  _1175
REMARK  538  A    between atoms: _1174  and  _1177
REMARK  539  A    between atoms: _1177  and  _1178
REMARK  540  A    between atoms: _1178  and  _1179
REMARK  541  A    between atoms: _1182  and  _1183
REMARK  542  A    between atoms: _1183  and  _1184
REMARK  543  A    between atoms: _1183  and  _1186
REMARK  544  A    between atoms: _1188  and  _1189
REMARK  545  A    between atoms: _1189  and  _1190
REMARK  546  A    between atoms: _1189  and  _1192
REMARK  547  A    between atoms: _1194  and  _1195
REMARK  548  A    between atoms: _1195  and  _1196
REMARK  549  A    between atoms: _1199  and  _1200
REMARK  550  A    between atoms: _1200  and  _1201
REMARK  551  A    between atoms: _1203  and  _1204
REMARK  552  A    between atoms: _1204  and  _1205
REMARK  553  A    between atoms: _1207  and  _1208
REMARK  554  A    between atoms: _1208  and  _1209
REMARK  555  A    between atoms: _1208  and  _1211
REMARK  556  A    between atoms: _1213  and  _1214
REMARK  557  A    between atoms: _1214  and  _1215
REMARK  558  A    between atoms: _1214  and  _1217
REMARK  559  A    between atoms: _1217  and  _1218
REMARK  560  A    between atoms: _1224  and  _1225
REMARK  561  A    between atoms: _1225  and  _1226
REMARK  562  A    between atoms: _1225  and  _1228
REMARK  563  A    between atoms: _1231  and  _1232
REMARK  564  A    between atoms: _1232  and  _1233
REMARK  565  A    between atoms: _1232  and  _1235
REMARK  566  A    between atoms: _1238  and  _1239
REMARK  567  A    between atoms: _1239  and  _1240
REMARK  568  A    between atoms: _1239  and  _1242
REMARK  569  A    between atoms: _1242  and  _1243
REMARK  570  A    between atoms: _1243  and  _1244
REMARK  571  A    between atoms: _1244  and  _1245
REMARK  572  A    between atoms: _1249  and  _1250
REMARK  573  A    between atoms: _1250  and  _1251
REMARK  574  A    between atoms: _1250  and  _1253
REMARK  575  A    between atoms: _1256  and  _1257
REMARK  576  A    between atoms: _1257  and  _1258
REMARK  577  A    between atoms: _1257  and  _1260
REMARK  578  A    between atoms: _1260  and  _1261
REMARK  579  A    between atoms: _1264  and  _1265
REMARK  580  A    between atoms: _1265  and  _1266
REMARK  581  A    between atoms: _1265  and  _1268
REMARK  582  A    between atoms: _1271  and  _1272
REMARK  583  A    between atoms: _1272  and  _1273
REMARK  584  A    between atoms: _1275  and  _1276
REMARK  585  A    between atoms: _1276  and  _1277
REMARK  586  A    between atoms: _1276  and  _1279
REMARK  587  A    between atoms: _1279  and  _1280
REMARK  588  A    between atoms: _1280  and  _1281
REMARK  589  A    between atoms: _1285  and  _1286
REMARK  590  A    between atoms: _1291  and  _1293
REMARK  591  A    between atoms: _1298  and  _1299
REMARK  592  A    between atoms: _1299  and  _1301
REMARK  593  A    between atoms: _1300  and  _1301
REMARK  594  A    between atoms: _1304  and  _1305
REMARK  595  A    between atoms: _1305  and  _1306
REMARK  596  A    between atoms: _1308  and  _1309
REMARK  597  A    between atoms: _1309  and  _1310
REMARK  598  A    between atoms: _1309  and  _1312
REMARK  599  A    between atoms: _1312  and  _1313
REMARK  600  A    between atoms: _1313  and  _1314
REMARK  601  A    between atoms: _1314  and  _1315
REMARK  602  A    between atoms: _1319  and  _1320
REMARK  603  A    between atoms: _1320  and  _1321
REMARK  604  A    between atoms: _1323  and  _1324
REMARK  605  A    between atoms: _1324  and  _1325
REMARK  606  A    between atoms: _1324  and  _1327
REMARK  607  A    between atoms: _1330  and  _1331
REMARK  608  A    between atoms: _1331  and  _1332
REMARK  609  A    between atoms: _1331  and  _1334
REMARK  610  A    between atoms: _1334  and  _1335
REMARK  611  A    between atoms: _1335  and  _1336
REMARK  612  A    between atoms: _1336  and  _1337
REMARK  613  A    between atoms: _1339  and  _1340
REMARK  614  A    between atoms: _1340  and  _1341
REMARK  615  A    between atoms: _1340  and  _1343
REMARK  616  A    between atoms: _1346  and  _1347
REMARK  617  A    between atoms: _1347  and  _1348
REMARK  618  A    between atoms: _1347  and  _1350
REMARK  619  A    between atoms: _1350  and  _1351
REMARK  620  A    between atoms: _1354  and  _1355
REMARK  621  A    between atoms: _1355  and  _1356
REMARK  622  A    between atoms: _1355  and  _1358
REMARK  623  A    between atoms: _1358  and  _1359
REMARK  624  A    between atoms: _1362  and  _1363
REMARK  625  A    between atoms: _1363  and  _1364
REMARK  626  A    between atoms: _1363  and  _1366
REMARK  627  A    between atoms: _1366  and  _1367
REMARK  628  A    between atoms: _1372  and  _1373
REMARK  629  A    between atoms: _1373  and  _1374
REMARK  630  A    between atoms: _1373  and  _1376
REMARK  631  A    between atoms: _1376  and  _1377
REMARK  632  A    between atoms: _1380  and  _1381
REMARK  633  A    between atoms: _1381  and  _1382
REMARK  634  A    between atoms: _1381  and  _1384
REMARK  635  A    between atoms: _1384  and  _1385
REMARK  636  A    between atoms: _1385  and  _1386
REMARK  637  A    between atoms: _1386  and  _1387
REMARK  638  A    between atoms: _1389  and  _1390
REMARK  639  A    between atoms: _1390  and  _1391
REMARK  640  A    between atoms: _1390  and  _1393
REMARK  641  A    between atoms: _1393  and  _1394
REMARK  642  A    between atoms: _1394  and  _1395
REMARK  643  A    between atoms: _1398  and  _1399
REMARK  644  A    between atoms: _1399  and  _1400
REMARK  645  A    between atoms: _1399  and  _1402
REMARK  646  A    between atoms: _1402  and  _1403
REMARK  647  A    between atoms: _1406  and  _1407
REMARK  648  A    between atoms: _1407  and  _1408
REMARK  649  A    between atoms: _1407  and  _1410
REMARK  650  A    between atoms: _1410  and  _1411
REMARK  651  A    between atoms: _1411  and  _1412
REMARK  652  A    between atoms: _1415  and  _1416
REMARK  653  A    between atoms: _1416  and  _1417
REMARK  654  A    between atoms: _1416  and  _1419
REMARK  655  A    between atoms: _1422  and  _1423
REMARK  656  A    between atoms: _1423  and  _1424
REMARK  657  A    between atoms: _1423  and  _1426
REMARK  658  A    between atoms: _1426  and  _1427
REMARK  659  A    between atoms: _1427  and  _1428
REMARK  660  A    between atoms: _1431  and  _1432
REMARK  661  A    between atoms: _1432  and  _1433
REMARK  662  A    between atoms: _1432  and  _1435
REMARK  663  A    between atoms: _1435  and  _1436
REMARK  664  A    between atoms: _1443  and  _1444
REMARK  665  A    between atoms: _1444  and  _1445
REMARK  666  A    between atoms: _1444  and  _1447
REMARK  667  A    between atoms: _1447  and  _1448
REMARK  668  A    between atoms: _1451  and  _1452
REMARK  669  A    between atoms: _1452  and  _1453
REMARK  670  A    between atoms: _1452  and  _1455
REMARK  671  A    between atoms: _1455  and  _1456
REMARK  672  A    between atoms: _1456  and  _1457
REMARK  673  A    between atoms: _1460  and  _1461
REMARK  674  A    between atoms: _1461  and  _1462
REMARK  675  A    between atoms: _1461  and  _1464
REMARK  676  A    between atoms: _1464  and  _1465
REMARK  677  A    between atoms: _1465  and  _1466
REMARK  678  A    between atoms: _1469  and  _1470
REMARK  679  A    between atoms: _1470  and  _1471
REMARK  680  A    between atoms: _1470  and  _1473
REMARK  681  A    between atoms: _1473  and  _1474
REMARK  682  A    between atoms: _1474  and  _1475
REMARK  683  A    between atoms: _1475  and  _1476
REMARK  684  A    between atoms: _1480  and  _1481
REMARK  685  A    between atoms: _1481  and  _1482
REMARK  686  A    between atoms: _1481  and  _1484
REMARK  687  A    between atoms: _1484  and  _1485
REMARK  688  A    between atoms: _1485  and  _1486
REMARK  689  A    between atoms: _1486  and  _1487
REMARK  690  A    between atoms: _1491  and  _1492
REMARK  691  A    between atoms: _1492  and  _1493
REMARK  692  A    between atoms: _1492  and  _1495
REMARK  693  A    between atoms: _1495  and  _1496
REMARK  694  A    between atoms: _1499  and  _1500
REMARK  695  A    between atoms: _1500  and  _1501
REMARK  696  A    between atoms: _1500  and  _1503
REMARK  697  A    between atoms: _1503  and  _1504
REMARK  698  A    between atoms: _1504  and  _1505
REMARK  699  A    between atoms: _1505  and  _1506
REMARK  700  A    between atoms: _1508  and  _1509
REMARK  701  A    between atoms: _1509  and  _1510
REMARK  702  A    between atoms: _1509  and  _1512
REMARK  703  A    between atoms: _1512  and  _1513
REMARK  704  A    between atoms: _1513  and  _1514
REMARK  705  A    between atoms: _1517  and  _1518
REMARK  706  A    between atoms: _1518  and  _1519
REMARK  707  A    between atoms: _1518  and  _1521
REMARK  708  A    between atoms: _1521  and  _1522
REMARK  709  A    between atoms: _1525  and  _1526
REMARK  710  A    between atoms: _1526  and  _1527
REMARK  711  A    between atoms: _1526  and  _1529
REMARK  712  A    between atoms: _1532  and  _1533
REMARK  713  A    between atoms: _1533  and  _1534
REMARK  714  A    between atoms: _1533  and  _1536
REMARK  715  A    between atoms: _1536  and  _1537
REMARK  716  A    between atoms: _1537  and  _1538
REMARK  717  A    between atoms: _1538  and  _1539
REMARK  718  A    between atoms: _1541  and  _1542
REMARK  719  A    between atoms: _1542  and  _1543
REMARK  720  A    between atoms: _1542  and  _1545
REMARK  721  A    between atoms: _1545  and  _1546
REMARK  722  A    between atoms: _1546  and  _1547
REMARK  723  A    between atoms: _1547  and  _1548
REMARK  724  A    between atoms: _1550  and  _1551
REMARK  725  A    between atoms: _1551  and  _1552
REMARK  726  A    between atoms: _1551  and  _1554
REMARK  727  A    between atoms: _1554  and  _1555
REMARK  728  A    between atoms: _1560  and  _1561
REMARK  729  A    between atoms: _1561  and  _1562
REMARK  730  A    between atoms: _1561  and  _1564
REMARK  731  A    between atoms: _1566  and  _1567
REMARK  732  A    between atoms: _1567  and  _1568
REMARK  733  A    between atoms: _1567  and  _1570
REMARK  734  A    between atoms: _1570  and  _1571
REMARK  735  A    between atoms: _1571  and  _1572
REMARK  736  A    between atoms: _1575  and  _1576
REMARK  737  A    between atoms: _1576  and  _1577
REMARK  738  A    between atoms: _1576  and  _1579
REMARK  739  A    between atoms: _1579  and  _1580
REMARK  740  A    between atoms: _1586  and  _1587
REMARK  741  A    between atoms: _1587  and  _1588
REMARK  742  A    between atoms: _1587  and  _1590
REMARK  743  A    between atoms: _1590  and  _1591
REMARK  744  A    between atoms: _1594  and  _1595
REMARK  745  A    between atoms: _1595  and  _1596
REMARK  746  A    between atoms: _1598  and  _1599
REMARK  747  A    between atoms: _1599  and  _1600
REMARK  748  A    between atoms: _1599  and  _1602
REMARK  749  A    between atoms: _1602  and  _1603
REMARK  750  A    between atoms: _1611  and  _1612
REMARK  751  A    between atoms: _1617  and  _1618
REMARK  752  A    between atoms: _1618  and  _1619
REMARK  753  A    between atoms: _1618  and  _1621
REMARK  754  A    between atoms: _1621  and  _1622
REMARK  755  A    between atoms: _1625  and  _1626
REMARK  756  A    between atoms: _1626  and  _1627
REMARK  757  A    between atoms: _1626  and  _1629
REMARK  758  A    between atoms: _1632  and  _1633
REMARK  759  A    between atoms: _1633  and  _1634
REMARK  760  A    between atoms: _1633  and  _1636
REMARK  761  A    between atoms: _1636  and  _1637
REMARK  762  A    between atoms: _1640  and  _1641
REMARK  763  A    between atoms: _1641  and  _1642
REMARK  764  A    between atoms: _1641  and  _1644
REMARK  765  A    between atoms: _1644  and  _1645
REMARK  766  A    between atoms: _1651  and  _1652
REMARK  767  A    between atoms: _1652  and  _1653
REMARK  768  A    between atoms: _1652  and  _1655
REMARK  769  A    between atoms: _1658  and  _1659
REMARK  770  A    between atoms: _1659  and  _1660
REMARK  771  A    between atoms: _1659  and  _1662
REMARK  772  A    between atoms: _1662  and  _1663
REMARK  773  A    between atoms: _1663  and  _1664
REMARK  774  A    between atoms: _1667  and  _1668
REMARK  775  A    between atoms: _1668  and  _1669
REMARK  776  A    between atoms: _1668  and  _1671
REMARK  777  A    between atoms: _1671  and  _1672
REMARK  778  A    between atoms: _1672  and  _1673
REMARK  779  A    between atoms: _1673  and  _1674
REMARK                            x       y       z     vdW  Elec       q    Type
REMARK                         _______ _______ _______ _____ _____    ______ ____
ROOT
ATOM      1  C   UNL     1      -7.684   7.947  30.773  0.00  0.00    +0.261 C 
ATOM      2  N   UNL     1      -7.322   6.727  30.403  0.00  0.00    -0.088 NA
ATOM      3  O   UNL     1      -8.635   8.526  30.268  0.00  0.00    -0.272 OA
ENDROOT
BRANCH   1   5
ATOM      4  C   UNL     1      -7.314   9.937  32.373  0.00  0.00    +0.010 C 
ATOM      5  C   UNL     1      -6.943   8.702  31.760  0.00  0.00    +0.089 C 
ENDBRANCH   1   5
TORSDOF 1
REMARK  Name = /Users/mlugowska/PhD/ML_residence_time_prediction/protein_files/5NYH_protein.pdb
REMARK  779 active torsions:
REMARK  status: ('A' for Active; 'I' for Inactive)
REMARK    1  A    between atoms: _2  and  _3
REMARK    2  A    between atoms: _2  and  _5
REMARK    3  A    between atoms: _5  and  _6
REMARK    4  A    between atoms: _6  and  _7
REMARK    5  A    between atoms: _10  and  _11
REMARK    6  A    between atoms: _11  and  _12
REMARK    7  A    between atoms: _11  and  _14
REMARK    8  A    between atoms: _17  and  _18
REMARK    9  A    between atoms: _18  and  _19
REMARK   10  A    between atoms: _18  and  _21
REMARK   11  A    between atoms: _21  and  _22
REMARK   12  A    between atoms: _22  and  _23
REMARK   13  A    between atoms: _26  and  _27
REMARK   14  A    between atoms: _27  and  _28
REMARK   15  A    between atoms: _27  and  _30
REMARK   16  A    between atoms: _33  and  _34
REMARK   17  A    between atoms: _34  and  _35
REMARK   18  A    between atoms: _34  and  _37
REMARK   19  A    between atoms: _37  and  _38
REMARK   20  A    between atoms: _44  and  _45
REMARK   21  A    between atoms: _45  and  _46
REMARK   22  A    between atoms: _49  and  _50
REMARK   23  A    between atoms: _50  and  _51
REMARK   24  A    between atoms: _50  and  _53
REMARK   25  A    between atoms: _53  and  _54
REMARK   26  A    between atoms: _60  and  _61
REMARK   27  A    between atoms: _61  and  _62
REMARK   28  A    between atoms: _61  and  _64
REMARK   29  A    between atoms: _64  and  _65
REMARK   30  A    between atoms: _65  and  _66
REMARK   31  A    between atoms: _69  and  _70
REMARK   32  A    between atoms: _70  and  _71
REMARK   33  A    between atoms: _74  and  _75
REMARK   34  A    between atoms: _75  and  _76
REMARK   35  A    between atoms: _75  and  _78
REMARK   36  A    between atoms: _78  and  _79
REMARK   37  A    between atoms: _79  and  _80
REMARK   38  A    between atoms: _83  and  _84
REMARK   39  A    between atoms: _84  and  _85
REMARK   40  A    between atoms: _84  and  _87
REMARK   41  A    between atoms: _87  and  _88
REMARK   42  A    between atoms: _91  and  _92
REMARK   43  A    between atoms: _92  and  _93
REMARK   44  A    between atoms: _96  and  _97
REMARK   45  A    between atoms: _97  and  _98
REMARK   46  A    between atoms: _97  and  _100
REMARK   47  A    between atoms: _100  and  _101
REMARK   48  A    between atoms: _101  and  _102
REMARK   49  A    between atoms: _105  and  _106
REMARK   50  A    between atoms: _106  and  _107
REMARK   51  A    between atoms: _106  and  _109
REMARK   52  A    between atoms: _109  and  _110
REMARK   53  A    between atoms: _113  and  _114
REMARK   54  A    between atoms: _114  and  _115
REMARK   55  A    between atoms: _114  and  _117
REMARK   56  A    between atoms: _117  and  _118
REMARK   57  A    between atoms: _118  and  _119
REMARK   58  A    between atoms: _121  and  _122
REMARK   59  A    between atoms: _122  and  _123
REMARK   60  A    between atoms: _122  and  _125
REMARK   61  A    between atoms: _127  and  _128
REMARK   62  A    between atoms: _128  and  _129
REMARK   63  A    between atoms: _128  and  _131
REMARK   64  A    between atoms: _131  and  _132
REMARK   65  A    between atoms: _135  and  _136
REMARK   66  A    between atoms: _136  and  _137
REMARK   67  A    between atoms: _136  and  _139
REMARK   68  A    between atoms: _139  and  _140
REMARK   69  A    between atoms: _143  and  _144
REMARK   70  A    between atoms: _144  and  _145
REMARK   71  A    between atoms: _144  and  _147
REMARK   72  A    between atoms: _147  and  _148
REMARK   73  A    between atoms: _151  and  _152
REMARK   74  A    between atoms: _152  and  _153
REMARK   75  A    between atoms: _152  and  _155
REMARK   76  A    between atoms: _155  and  _156
REMARK   77  A    between atoms: _159  and  _160
REMARK   78  A    between atoms: _160  and  _161
REMARK   79  A    between atoms: _160  and  _163
REMARK   80  A    between atoms: _166  and  _167
REMARK   81  A    between atoms: _167  and  _168
REMARK   82  A    between atoms: _167  and  _170
REMARK   83  A    between atoms: _170  and  _171
REMARK   84  A    between atoms: _177  and  _178
REMARK   85  A    between atoms: _178  and  _179
REMARK   86  A    between atoms: _178  and  _181
REMARK   87  A    between atoms: _181  and  _182
REMARK   88  A    between atoms: _189  and  _190
REMARK   89  A    between atoms: _190  and  _191
REMARK   90  A    between atoms: _190  and  _193
REMARK   91  A    between atoms: _195  and  _196
REMARK   92  A    between atoms: _196  and  _197
REMARK   93  A    between atoms: _196  and  _199
REMARK   94  A    between atoms: _199  and  _200
REMARK   95  A    between atoms: _203  and  _204
REMARK   96  A    between atoms: _204  and  _205
REMARK   97  A    between atoms: _204  and  _207
REMARK   98  A    between atoms: _207  and  _208
REMARK   99  A    between atoms: _208  and  _209
REMARK  100  A    between atoms: _209  and  _210
REMARK  101  A    between atoms: _212  and  _213
REMARK  102  A    between atoms: _213  and  _214
REMARK  103  A    between atoms: _213  and  _216
REMARK  104  A    between atoms: _216  and  _217
REMARK  105  A    between atoms: _217  and  _218
REMARK  106  A    between atoms: _221  and  _222
REMARK  107  A    between atoms: _222  and  _223
REMARK  108  A    between atoms: _222  and  _225
REMARK  109  A    between atoms: _225  and  _226
REMARK  110  A    between atoms: _229  and  _230
REMARK  111  A    between atoms: _230  and  _231
REMARK  112  A    between atoms: _230  and  _233
REMARK  113  A    between atoms: _233  and  _234
REMARK  114  A    between atoms: _240  and  _241
REMARK  115  A    between atoms: _241  and  _242
REMARK  116  A    between atoms: _241  and  _244
REMARK  117  A    between atoms: _244  and  _245
REMARK  118  A    between atoms: _248  and  _249
REMARK  119  A    between atoms: _249  and  _250
REMARK  120  A    between atoms: _249  and  _252
REMARK  121  A    between atoms: _252  and  _253
REMARK  122  A    between atoms: _253  and  _254
REMARK  123  A    between atoms: _254  and  _255
REMARK  124  A    between atoms: _259  and  _260
REMARK  125  A    between atoms: _260  and  _261
REMARK  126  A    between atoms: _260  and  _263
REMARK  127  A    between atoms: _263  and  _264
REMARK  128  A    between atoms: _264  and  _265
REMARK  129  A    between atoms: _268  and  _269
REMARK  130  A    between atoms: _269  and  _270
REMARK  131  A    between atoms: _269  and  _272
REMARK  132  A    between atoms: _272  and  _273
REMARK  133  A    between atoms: _276  and  _277
REMARK  134  A    between atoms: _277  and  _278
REMARK  135  A    between atoms: _277  and  _280
REMARK  136  A    between atoms: _280  and  _281
REMARK  137  A    between atoms: _284  and  _285
REMARK  138  A    between atoms: _285  and  _286
REMARK  139  A    between atoms: _285  and  _288
REMARK  140  A    between atoms: _290  and  _291
REMARK  141  A    between atoms: _291  and  _292
REMARK  142  A    between atoms: _291  and  _294
REMARK  143  A    between atoms: _294  and  _295
REMARK  144  A    between atoms: _298  and  _299
REMARK  145  A    between atoms: _299  and  _300
REMARK  146  A    between atoms: _299  and  _302
REMARK  147  A    between atoms: _304  and  _305
REMARK  148  A    between atoms: _305  and  _306
REMARK  149  A    between atoms: _305  and  _308
REMARK  150  A    between atoms: _310  and  _311
REMARK  151  A    between atoms: _311  and  _312
REMARK  152  A    between atoms: _311  and  _314
REMARK  153  A    between atoms: _314  and  _315
REMARK  154  A    between atoms: _318  and  _319
REMARK  155  A    between atoms: _319  and  _320
REMARK  156  A    between atoms: _323  and  _324
REMARK  157  A    between atoms: _324  and  _325
REMARK  158  A    between atoms: _324  and  _327
REMARK  159  A    between atoms: _327  and  _328
REMARK  160  A    between atoms: _331  and  _332
REMARK  161  A    between atoms: _332  and  _333
REMARK  162  A    between atoms: _332  and  _335
REMARK  163  A    between atoms: _335  and  _336
REMARK  164  A    between atoms: _339  and  _340
REMARK  165  A    between atoms: _340  and  _341
REMARK  166  A    between atoms: _340  and  _343
REMARK  167  A    between atoms: _343  and  _344
REMARK  168  A    between atoms: _344  and  _345
REMARK  169  A    between atoms: _345  and  _346
REMARK  170  A    between atoms: _348  and  _349
REMARK  171  A    between atoms: _349  and  _350
REMARK  172  A    between atoms: _349  and  _352
REMARK  173  A    between atoms: _352  and  _353
REMARK  174  A    between atoms: _356  and  _357
REMARK  175  A    between atoms: _357  and  _358
REMARK  176  A    between atoms: _357  and  _360
REMARK  177  A    between atoms: _360  and  _361
REMARK  178  A    between atoms: _361  and  _362
REMARK  179  A    between atoms: _362  and  _363
REMARK  180  A    between atoms: _367  and  _368
REMARK  181  A    between atoms: _368  and  _369
REMARK  182  A    between atoms: _368  and  _371
REMARK  183  A    between atoms: _371  and  _372
REMARK  184  A    between atoms: _379  and  _380
REMARK  185  A    between atoms: _380  and  _381
REMARK  186  A    between atoms: _380  and  _383
REMARK  187  A    between atoms: _383  and  _384
REMARK  188  A    between atoms: _384  and  _385
REMARK  189  A    between atoms: _388  and  _389
REMARK  190  A    between atoms: _389  and  _390
REMARK  191  A    between atoms: _389  and  _392
REMARK  192  A    between atoms: _394  and  _395
REMARK  193  A    between atoms: _395  and  _396
REMARK  194  A    between atoms: _395  and  _398
REMARK  195  A    between atoms: _398  and  _399
REMARK  196  A    between atoms: _402  and  _403
REMARK  197  A    between atoms: _403  and  _404
REMARK  198  A    between atoms: _403  and  _406
REMARK  199  A    between atoms: _409  and  _410
REMARK  200  A    between atoms: _410  and  _411
REMARK  201  A    between atoms: _410  and  _413
REMARK  202  A    between atoms: _413  and  _414
REMARK  203  A    between atoms: _418  and  _419
REMARK  204  A    between atoms: _424  and  _425
REMARK  205  A    between atoms: _425  and  _426
REMARK  206  A    between atoms: _425  and  _428
REMARK  207  A    between atoms: _430  and  _431
REMARK  208  A    between atoms: _431  and  _432
REMARK  209  A    between atoms: _431  and  _434
REMARK  210  A    between atoms: _434  and  _435
REMARK  211  A    between atoms: _435  and  _436
REMARK  212  A    between atoms: _436  and  _437
REMARK  213  A    between atoms: _439  and  _440
REMARK  214  A    between atoms: _440  and  _441
REMARK  215  A    between atoms: _440  and  _443
REMARK  216  A    between atoms: _443  and  _444
REMARK  217  A    between atoms: _447  and  _448
REMARK  218  A    between atoms: _448  and  _449
REMARK  219  A    between atoms: _448  and  _451
REMARK  220  A    between atoms: _451  and  _452
REMARK  221  A    between atoms: _455  and  _456
REMARK  222  A    between atoms: _456  and  _457
REMARK  223  A    between atoms: _456  and  _459
REMARK  224  A    between atoms: _461  and  _462
REMARK  225  A    between atoms: _462  and  _463
REMARK  226  A    between atoms: _465  and  _466
REMARK  227  A    between atoms: _466  and  _467
REMARK  228  A    between atoms: _466  and  _469
REMARK  229  A    between atoms: _469  and  _470
REMARK  230  A    between atoms: _470  and  _471
REMARK  231  A    between atoms: _471  and  _472
REMARK  232  A    between atoms: _474  and  _475
REMARK  233  A    between atoms: _475  and  _476
REMARK  234  A    between atoms: _475  and  _478
REMARK  235  A    between atoms: _478  and  _479
REMARK  236  A    between atoms: _479  and  _480
REMARK  237  A    between atoms: _483  and  _484
REMARK  238  A    between atoms: _484  and  _485
REMARK  239  A    between atoms: _484  and  _487
REMARK  240  A    between atoms: _487  and  _488
REMARK  241  A    between atoms: _491  and  _492
REMARK  242  A    between atoms: _492  and  _493
REMARK  243  A    between atoms: _492  and  _495
REMARK  244  A    between atoms: _495  and  _496
REMARK  245  A    between atoms: _501  and  _502
REMARK  246  A    between atoms: _502  and  _503
REMARK  247  A    between atoms: _502  and  _505
REMARK  248  A    between atoms: _505  and  _506
REMARK  249  A    between atoms: _509  and  _510
REMARK  250  A    between atoms: _510  and  _511
REMARK  251  A    between atoms: _510  and  _513
REMARK  252  A    between atoms: _513  and  _514
REMARK  253  A    between atoms: _517  and  _518
REMARK  254  A    between atoms: _518  and  _519
REMARK  255  A    between atoms: _518  and  _521
REMARK  256  A    between atoms: _521  and  _522
REMARK  257  A    between atoms: _525  and  _526
REMARK  258  A    between atoms: _526  and  _527
REMARK  259  A    between atoms: _526  and  _529
REMARK  260  A    between atoms: _529  and  _530
REMARK  261  A    between atoms: _534  and  _535
REMARK  262  A    between atoms: _540  and  _541
REMARK  263  A    between atoms: _541  and  _542
REMARK  264  A    between atoms: _541  and  _544
REMARK  265  A    between atoms: _544  and  _545
REMARK  266  A    between atoms: _548  and  _549
REMARK  267  A    between atoms: _549  and  _552
REMARK  268  A    between atoms: _552  and  _553
REMARK  269  A    between atoms: _553  and  _554
REMARK  270  A    between atoms: _554  and  _555
REMARK  271  A    between atoms: _568  and  _569
REMARK  272  A    between atoms: _576  and  _577
REMARK  273  A    between atoms: _576  and  _579
REMARK  274  A    between atoms: _579  and  _580
REMARK  275  A    between atoms: _583  and  _584
REMARK  276  A    between atoms: _584  and  _585
REMARK  277  A    between atoms: _584  and  _587
REMARK  278  A    between atoms: _587  and  _588
REMARK  279  A    between atoms: _588  and  _589
REMARK  280  A    between atoms: _589  and  _590
REMARK  281  A    between atoms: _594  and  _595
REMARK  282  A    between atoms: _595  and  _596
REMARK  283  A    between atoms: _595  and  _598
REMARK  284  A    between atoms: _601  and  _602
REMARK  285  A    between atoms: _602  and  _603
REMARK  286  A    between atoms: _602  and  _605
REMARK  287  A    between atoms: _605  and  _606
REMARK  288  A    between atoms: _609  and  _610
REMARK  289  A    between atoms: _610  and  _611
REMARK  290  A    between atoms: _610  and  _613
REMARK  291  A    between atoms: _616  and  _617
REMARK  292  A    between atoms: _617  and  _618
REMARK  293  A    between atoms: _617  and  _620
REMARK  294  A    between atoms: _620  and  _621
REMARK  295  A    between atoms: _624  and  _625
REMARK  296  A    between atoms: _625  and  _626
REMARK  297  A    between atoms: _625  and  _628
REMARK  298  A    between atoms: _631  and  _632
REMARK  299  A    between atoms: _632  and  _633
REMARK  300  A    between atoms: _632  and  _635
REMARK  301  A    between atoms: _635  and  _636
REMARK  302  A    between atoms: _639  and  _640
REMARK  303  A    between atoms: _640  and  _641
REMARK  304  A    between atoms: _640  and  _643
REMARK  305  A    between atoms: _646  and  _647
REMARK  306  A    between atoms: _647  and  _648
REMARK  307  A    between atoms: _650  and  _651
REMARK  308  A    between atoms: _651  and  _652
REMARK  309  A    between atoms: _651  and  _654
REMARK  310  A    between atoms: _654  and  _655
REMARK  311  A    between atoms: _658  and  _659
REMARK  312  A    between atoms: _659  and  _660
REMARK  313  A    between atoms: _662  and  _663
REMARK  314  A    between atoms: _663  and  _664
REMARK  315  A    between atoms: _663  and  _666
REMARK  316  A    between atoms: _666  and  _667
REMARK  317  A    between atoms: _667  and  _668
REMARK  318  A    between atoms: _670  and  _671
REMARK  319  A    between atoms: _671  and  _672
REMARK  320  A    between atoms: _671  and  _674
REMARK  321  A    between atoms: _677  and  _678
REMARK  322  A    between atoms: _678  and  _679
REMARK  323  A    between atoms: _678  and  _681
REMARK  324  A    between atoms: _681  and  _682
REMARK  325  A    between atoms: _682  and  _683
REMARK  326  A    between atoms: _683  and  _684
REMARK  327  A    between atoms: _686  and  _687
REMARK  328  A    between atoms: _687  and  _688
REMARK  329  A    between atoms: _691  and  _692
REMARK  330  A    between atoms: _692  and  _693
REMARK  331  A    between atoms: _692  and  _695
REMARK  332  A    between atoms: _695  and  _696
REMARK  333  A    between atoms: _699  and  _700
REMARK  334  A    between atoms: _700  and  _701
REMARK  335  A    between atoms: _700  and  _703
REMARK  336  A    between atoms: _703  and  _704
REMARK  337  A    between atoms: _707  and  _708
REMARK  338  A    between atoms: _708  and  _709
REMARK  339  A    between atoms: _708  and  _711
REMARK  340  A    between atoms: _711  and  _712
REMARK  341  A    between atoms: _715  and  _716
REMARK  342  A    between atoms: _716  and  _717
REMARK  343  A    between atoms: _716  and  _719
REMARK  344  A    between atoms: _719  and  _720
REMARK  345  A    between atoms: _723  and  _724
REMARK  346  A    between atoms: _724  and  _725
REMARK  347  A    between atoms: _724  and  _727
REMARK  348  A    between atoms: _727  and  _728
REMARK  349  A    between atoms: _731  and  _732
REMARK  350  A    between atoms: _732  and  _733
REMARK  351  A    between atoms: _732  and  _735
REMARK  352  A    between atoms: _735  and  _736
REMARK  353  A    between atoms: _739  and  _740
REMARK  354  A    between atoms: _740  and  _741
REMARK  355  A    between atoms: _743  and  _744
REMARK  356  A    between atoms: _744  and  _745
REMARK  357  A    between atoms: _744  and  _747
REMARK  358  A    between atoms: _750  and  _751
REMARK  359  A    between atoms: _751  and  _752
REMARK  360  A    between atoms: _751  and  _754
REMARK  361  A    between atoms: _754  and  _755
REMARK  362  A    between atoms: _758  and  _759
REMARK  363  A    between atoms: _759  and  _760
REMARK  364  A    between atoms: _763  and  _764
REMARK  365  A    between atoms: _764  and  _765
REMARK  366  A    between atoms: _764  and  _767
REMARK  367  A    between atoms: _767  and  _768
REMARK  368  A    between atoms: _768  and  _769
REMARK  369  A    between atoms: _769  and  _770
REMARK  370  A    between atoms: _772  and  _773
REMARK  371  A    between atoms: _773  and  _774
REMARK  372  A    between atoms: _773  and  _776
REMARK  373  A    between atoms: _778  and  _779
REMARK  374  A    between atoms: _779  and  _780
REMARK  375  A    between atoms: _782  and  _783
REMARK  376  A    between atoms: _783  and  _784
REMARK  377  A    between atoms: _783  and  _786
REMARK  378  A    between atoms: _789  and  _790
REMARK  379  A    between atoms: _790  and  _791
REMARK  380  A    between atoms: _790  and  _793
REMARK  381  A    between atoms: _793  and  _794
REMARK  382  A    between atoms: _794  and  _795
REMARK  383  A    between atoms: _795  and  _796
REMARK  384  A    between atoms: _798  and  _799
REMARK  385  A    between atoms: _799  and  _800
REMARK  386  A    between atoms: _803  and  _804
REMARK  387  A    between atoms: _804  and  _805
REMARK  388  A    between atoms: _804  and  _807
REMARK  389  A    between atoms: _807  and  _808
REMARK  390  A    between atoms: _814  and  _815
REMARK  391  A    between atoms: _815  and  _816
REMARK  392  A    between atoms: _815  and  _818
REMARK  393  A    between atoms: _818  and  _819
REMARK  394  A    between atoms: _819  and  _820
REMARK  395  A    between atoms: _822  and  _823
REMARK  396  A    between atoms: _823  and  _824
REMARK  397  A    between atoms: _823  and  _826
REMARK  398  A    between atoms: _826  and  _827
REMARK  399  A    between atoms: _827  and  _828
REMARK  400  A    between atoms: _831  and  _832
REMARK  401  A    between atoms: _832  and  _833
REMARK  402  A    between atoms: _836  and  _837
REMARK  403  A    between atoms: _837  and  _838
REMARK  404  A    between atoms: _837  and  _840
REMARK  405  A    between atoms: _840  and  _841
REMARK  406  A    between atoms: _844  and  _845
REMARK  407  A    between atoms: _845  and  _846
REMARK  408  A    between atoms: _845  and  _848
REMARK  409  A    between atoms: _848  and  _849
REMARK  410  A    between atoms: _849  and  _850
REMARK  411  A    between atoms: _853  and  _854
REMARK  412  A    between atoms: _854  and  _855
REMARK  413  A    between atoms: _858  and  _859
REMARK  414  A    between atoms: _859  and  _860
REMARK  415  A    between atoms: _862  and  _863
REMARK  416  A    between atoms: _863  and  _864
REMARK  417  A    between atoms: _867  and  _868
REMARK  418  A    between atoms: _868  and  _869
REMARK  419  A    between atoms: _868  and  _871
REMARK  420  A    between atoms: _871  and  _872
REMARK  421  A    between atoms: _875  and  _876
REMARK  422  A    between atoms: _876  and  _877
REMARK  423  A    between atoms: _876  and  _879
REMARK  424  A    between atoms: _879  and  _880
REMARK  425  A    between atoms: _883  and  _884
REMARK  426  A    between atoms: _884  and  _887
REMARK  427  A    between atoms: _906  and  _907
REMARK  428  A    between atoms: _906  and  _909
REMARK  429  A    between atoms: _909  and  _910
REMARK  430  A    between atoms: _913  and  _914
REMARK  431  A    between atoms: _914  and  _915
REMARK  432  A    between atoms: _917  and  _918
REMARK  433  A    between atoms: _918  and  _919
REMARK  434  A    between atoms: _918  and  _921
REMARK  435  A    between atoms: _921  and  _922
REMARK  436  A    between atoms: _922  and  _923
REMARK  437  A    between atoms: _926  and  _927
REMARK  438  A    between atoms: _927  and  _928
REMARK  439  A    between atoms: _927  and  _930
REMARK  440  A    between atoms: _930  and  _931
REMARK  441  A    between atoms: _937  and  _938
REMARK  442  A    between atoms: _938  and  _939
REMARK  443  A    between atoms: _941  and  _942
REMARK  444  A    between atoms: _942  and  _943
REMARK  445  A    between atoms: _942  and  _945
REMARK  446  A    between atoms: _948  and  _949
REMARK  447  A    between atoms: _949  and  _950
REMARK  448  A    between atoms: _952  and  _953
REMARK  449  A    between atoms: _953  and  _954
REMARK  450  A    between atoms: _953  and  _956
REMARK  451  A    between atoms: _956  and  _957
REMARK  452  A    between atoms: _963  and  _964
REMARK  453  A    between atoms: _964  and  _965
REMARK  454  A    between atoms: _964  and  _967
REMARK  455  A    between atoms: _967  and  _968
REMARK  456  A    between atoms: _975  and  _976
REMARK  457  A    between atoms: _976  and  _977
REMARK  458  A    between atoms: _976  and  _979
REMARK  459  A    between atoms: _981  and  _982
REMARK  460  A    between atoms: _982  and  _983
REMARK  461  A    between atoms: _986  and  _987
REMARK  462  A    between atoms: _987  and  _988
REMARK  463  A    between atoms: _987  and  _990
REMARK  464  A    between atoms: _990  and  _991
REMARK  465  A    between atoms: _998  and  _999
REMARK  466  A    between atoms: _999  and  _1000
REMARK  467  A    between atoms: _999  and  _1002
REMARK  468  A    between atoms: _1002  and  _1003
REMARK  469  A    between atoms: _1006  and  _1007
REMARK  470  A    between atoms: _1007  and  _1008
REMARK  471  A    between atoms: _1007  and  _1010
REMARK  472  A    between atoms: _1013  and  _1014
REMARK  473  A    between atoms: _1014  and  _1015
REMARK  474  A    between atoms: _1018  and  _1019
REMARK  475  A    between atoms: _1019  and  _1020
REMARK  476  A    between atoms: _1019  and  _1022
REMARK  477  A    between atoms: _1023  and  _1024
REMARK  478  A    between atoms: _1027  and  _1028
REMARK  479  A    between atoms: _1028  and  _1029
REMARK  480  A    between atoms: _1028  and  _1031
REMARK  481  A    between atoms: _1031  and  _1032
REMARK  482  A    between atoms: _1032  and  _1033
REMARK  483  A    between atoms: _1033  and  _1034
REMARK  484  A    between atoms: _1036  and  _1037
REMARK  485  A    between atoms: _1037  and  _1038
REMARK  486  A    between atoms: _1037  and  _1040
REMARK  487  A    between atoms: _1043  and  _1044
REMARK  488  A    between atoms: _1044  and  _1045
REMARK  489  A    between atoms: _1044  and  _1047
REMARK  490  A    between atoms: _1050  and  _1051
REMARK  491  A    between atoms: _1051  and  _1052
REMARK  492  A    between atoms: _1051  and  _1054
REMARK  493  A    between atoms: _1057  and  _1058
REMARK  494  A    between atoms: _1058  and  _1059
REMARK  495  A    between atoms: _1058  and  _1061
REMARK  496  A    between atoms: _1061  and  _1062
REMARK  497  A    between atoms: _1065  and  _1066
REMARK  498  A    between atoms: _1066  and  _1067
REMARK  499  A    between atoms: _1066  and  _1069
REMARK  500  A    between atoms: _1072  and  _1073
REMARK  501  A    between atoms: _1073  and  _1074
REMARK  502  A    between atoms: _1073  and  _1076
REMARK  503  A    between atoms: _1076  and  _1077
REMARK  504  A    between atoms: _1077  and  _1078
REMARK  505  A    between atoms: _1078  and  _1079
REMARK  506  A    between atoms: _1081  and  _1082
REMARK  507  A    between atoms: _1082  and  _1083
REMARK  508  A    between atoms: _1082  and  _1085
REMARK  509  A    between atoms: _1085  and  _1086
REMARK  510  A    between atoms: _1091  and  _1092
REMARK  511  A    between atoms: _1092  and  _1093
REMARK  512  A    between atoms: _1092  and  _1095
REMARK  513  A    between atoms: _1095  and  _1096
REMARK  514  A    between atoms: _1099  and  _1100
REMARK  515  A    between atoms: _1100  and  _1101
REMARK  516  A    between atoms: _1100  and  _1103
REMARK  517  A    between atoms: _1103  and  _1104
REMARK  518  A    between atoms: _1107  and  _1108
REMARK  519  A    between atoms: _1108  and  _1111
REMARK  520  A    between atoms: _1111  and  _1112
REMARK  521  A    between atoms: _1125  and  _1127
REMARK  522  A    between atoms: _1134  and  _1135
REMARK  523  A    between atoms: _1134  and  _1137
REMARK  524  A    between atoms: _1137  and  _1138
REMARK  525  A    between atoms: _1138  and  _1139
REMARK  526  A    between atoms: _1142  and  _1143
REMARK  527  A    between atoms: _1143  and  _1144
REMARK  528  A    between atoms: _1143  and  _1146
REMARK  529  A    between atoms: _1146  and  _1147
REMARK  530  A    between atoms: _1154  and  _1155
REMARK  531  A    between atoms: _1155  and  _1156
REMARK  532  A    between atoms: _1159  and  _1160
REMARK  533  A    between atoms: _1160  and  _1161
REMARK  534  A    between atoms: _1160  and  _1163
REMARK  535  A    between atoms: _1163  and  _1164
REMARK  536  A    between atoms: _1173  and  _1174
REMARK  537  A    between atoms: _1174  and  _1175
REMARK  538  A    between atoms: _1174  and  _1177
REMARK  539  A    between atoms: _1177  and  _1178
REMARK  540  A    between atoms: _1178  and  _1179
REMARK  541  A    between atoms: _1182  and  _1183
REMARK  542  A    between atoms: _1183  and  _1184
REMARK  543  A    between atoms: _1183  and  _1186
REMARK  544  A    between atoms: _1188  and  _1189
REMARK  545  A    between atoms: _1189  and  _1190
REMARK  546  A    between atoms: _1189  and  _1192
REMARK  547  A    between atoms: _1194  and  _1195
REMARK  548  A    between atoms: _1195  and  _1196
REMARK  549  A    between atoms: _1199  and  _1200
REMARK  550  A    between atoms: _1200  and  _1201
REMARK  551  A    between atoms: _1203  and  _1204
REMARK  552  A    between atoms: _1204  and  _1205
REMARK  553  A    between atoms: _1207  and  _1208
REMARK  554  A    between atoms: _1208  and  _1209
REMARK  555  A    between atoms: _1208  and  _1211
REMARK  556  A    between atoms: _1213  and  _1214
REMARK  557  A    between atoms: _1214  and  _1215
REMARK  558  A    between atoms: _1214  and  _1217
REMARK  559  A    between atoms: _1217  and  _1218
REMARK  560  A    between atoms: _1224  and  _1225
REMARK  561  A    between atoms: _1225  and  _1226
REMARK  562  A    between atoms: _1225  and  _1228
REMARK  563  A    between atoms: _1231  and  _1232
REMARK  564  A    between atoms: _1232  and  _1233
REMARK  565  A    between atoms: _1232  and  _1235
REMARK  566  A    between atoms: _1238  and  _1239
REMARK  567  A    between atoms: _1239  and  _1240
REMARK  568  A    between atoms: _1239  and  _1242
REMARK  569  A    between atoms: _1242  and  _1243
REMARK  570  A    between atoms: _1243  and  _1244
REMARK  571  A    between atoms: _1244  and  _1245
REMARK  572  A    between atoms: _1249  and  _1250
REMARK  573  A    between atoms: _1250  and  _1251
REMARK  574  A    between atoms: _1250  and  _1253
REMARK  575  A    between atoms: _1256  and  _1257
REMARK  576  A    between atoms: _1257  and  _1258
REMARK  577  A    between atoms: _1257  and  _1260
REMARK  578  A    between atoms: _1260  and  _1261
REMARK  579  A    between atoms: _1264  and  _1265
REMARK  580  A    between atoms: _1265  and  _1266
REMARK  581  A    between atoms: _1265  and  _1268
REMARK  582  A    between atoms: _1271  and  _1272
REMARK  583  A    between atoms: _1272  and  _1273
REMARK  584  A    between atoms: _1275  and  _1276
REMARK  585  A    between atoms: _1276  and  _1277
REMARK  586  A    between atoms: _1276  and  _1279
REMARK  587  A    between atoms: _1279  and  _1280
REMARK  588  A    between atoms: _1280  and  _1281
REMARK  589  A    between atoms: _1285  and  _1286
REMARK  590  A    between atoms: _1291  and  _1293
REMARK  591  A    between atoms: _1298  and  _1299
REMARK  592  A    between atoms: _1299  and  _1301
REMARK  593  A    between atoms: _1300  and  _1301
REMARK  594  A    between atoms: _1304  and  _1305
REMARK  595  A    between atoms: _1305  and  _1306
REMARK  596  A    between atoms: _1308  and  _1309
REMARK  597  A    between atoms: _1309  and  _1310
REMARK  598  A    between atoms: _1309  and  _1312
REMARK  599  A    between atoms: _1312  and  _1313
REMARK  600  A    between atoms: _1313  and  _1314
REMARK  601  A    between atoms: _1314  and  _1315
REMARK  602  A    between atoms: _1319  and  _1320
REMARK  603  A    between atoms: _1320  and  _1321
REMARK  604  A    between atoms: _1323  and  _1324
REMARK  605  A    between atoms: _1324  and  _1325
REMARK  606  A    between atoms: _1324  and  _1327
REMARK  607  A    between atoms: _1330  and  _1331
REMARK  608  A    between atoms: _1331  and  _1332
REMARK  609  A    between atoms: _1331  and  _1334
REMARK  610  A    between atoms: _1334  and  _1335
REMARK  611  A    between atoms: _1335  and  _1336
REMARK  612  A    between atoms: _1336  and  _1337
REMARK  613  A    between atoms: _1339  and  _1340
REMARK  614  A    between atoms: _1340  and  _1341
REMARK  615  A    between atoms: _1340  and  _1343
REMARK  616  A    between atoms: _1346  and  _1347
REMARK  617  A    between atoms: _1347  and  _1348
REMARK  618  A    between atoms: _1347  and  _1350
REMARK  619  A    between atoms: _1350  and  _1351
REMARK  620  A    between atoms: _1354  and  _1355
REMARK  621  A    between atoms: _1355  and  _1356
REMARK  622  A    between atoms: _1355  and  _1358
REMARK  623  A    between atoms: _1358  and  _1359
REMARK  624  A    between atoms: _1362  and  _1363
REMARK  625  A    between atoms: _1363  and  _1364
REMARK  626  A    between atoms: _1363  and  _1366
REMARK  627  A    between atoms: _1366  and  _1367
REMARK  628  A    between atoms: _1372  and  _1373
REMARK  629  A    between atoms: _1373  and  _1374
REMARK  630  A    between atoms: _1373  and  _1376
REMARK  631  A    between atoms: _1376  and  _1377
REMARK  632  A    between atoms: _1380  and  _1381
REMARK  633  A    between atoms: _1381  and  _1382
REMARK  634  A    between atoms: _1381  and  _1384
REMARK  635  A    between atoms: _1384  and  _1385
REMARK  636  A    between atoms: _1385  and  _1386
REMARK  637  A    between atoms: _1386  and  _1387
REMARK  638  A    between atoms: _1389  and  _1390
REMARK  639  A    between atoms: _1390  and  _1391
REMARK  640  A    between atoms: _1390  and  _1393
REMARK  641  A    between atoms: _1393  and  _1394
REMARK  642  A    between atoms: _1394  and  _1395
REMARK  643  A    between atoms: _1398  and  _1399
REMARK  644  A    between atoms: _1399  and  _1400
REMARK  645  A    between atoms: _1399  and  _1402
REMARK  646  A    between atoms: _1402  and  _1403
REMARK  647  A    between atoms: _1406  and  _1407
REMARK  648  A    between atoms: _1407  and  _1408
REMARK  649  A    between atoms: _1407  and  _1410
REMARK  650  A    between atoms: _1410  and  _1411
REMARK  651  A    between atoms: _1411  and  _1412
REMARK  652  A    between atoms: _1415  and  _1416
REMARK  653  A    between atoms: _1416  and  _1417
REMARK  654  A    between atoms: _1416  and  _1419
REMARK  655  A    between atoms: _1422  and  _1423
REMARK  656  A    between atoms: _1423  and  _1424
REMARK  657  A    between atoms: _1423  and  _1426
REMARK  658  A    between atoms: _1426  and  _1427
REMARK  659  A    between atoms: _1427  and  _1428
REMARK  660  A    between atoms: _1431  and  _1432
REMARK  661  A    between atoms: _1432  and  _1433
REMARK  662  A    between atoms: _1432  and  _1435
REMARK  663  A    between atoms: _1435  and  _1436
REMARK  664  A    between atoms: _1443  and  _1444
REMARK  665  A    between atoms: _1444  and  _1445
REMARK  666  A    between atoms: _1444  and  _1447
REMARK  667  A    between atoms: _1447  and  _1448
REMARK  668  A    between atoms: _1451  and  _1452
REMARK  669  A    between atoms: _1452  and  _1453
REMARK  670  A    between atoms: _1452  and  _1455
REMARK  671  A    between atoms: _1455  and  _1456
REMARK  672  A    between atoms: _1456  and  _1457
REMARK  673  A    between atoms: _1460  and  _1461
REMARK  674  A    between atoms: _1461  and  _1462
REMARK  675  A    between atoms: _1461  and  _1464
REMARK  676  A    between atoms: _1464  and  _1465
REMARK  677  A    between atoms: _1465  and  _1466
REMARK  678  A    between atoms: _1469  and  _1470
REMARK  679  A    between atoms: _1470  and  _1471
REMARK  680  A    between atoms: _1470  and  _1473
REMARK  681  A    between atoms: _1473  and  _1474
REMARK  682  A    between atoms: _1474  and  _1475
REMARK  683  A    between atoms: _1475  and  _1476
REMARK  684  A    between atoms: _1480  and  _1481
REMARK  685  A    between atoms: _1481  and  _1482
REMARK  686  A    between atoms: _1481  and  _1484
REMARK  687  A    between atoms: _1484  and  _1485
REMARK  688  A    between atoms: _1485  and  _1486
REMARK  689  A    between atoms: _1486  and  _1487
REMARK  690  A    between atoms: _1491  and  _1492
REMARK  691  A    between atoms: _1492  and  _1493
REMARK  692  A    between atoms: _1492  and  _1495
REMARK  693  A    between atoms: _1495  and  _1496
REMARK  694  A    between atoms: _1499  and  _1500
REMARK  695  A    between atoms: _1500  and  _1501
REMARK  696  A    between atoms: _1500  and  _1503
REMARK  697  A    between atoms: _1503  and  _1504
REMARK  698  A    between atoms: _1504  and  _1505
REMARK  699  A    between atoms: _1505  and  _1506
REMARK  700  A    between atoms: _1508  and  _1509
REMARK  701  A    between atoms: _1509  and  _1510
REMARK  702  A    between atoms: _1509  and  _1512
REMARK  703  A    between atoms: _1512  and  _1513
REMARK  704  A    between atoms: _1513  and  _1514
REMARK  705  A    between atoms: _1517  and  _1518
REMARK  706  A    between atoms: _1518  and  _1519
REMARK  707  A    between atoms: _1518  and  _1521
REMARK  708  A    between atoms: _1521  and  _1522
REMARK  709  A    between atoms: _1525  and  _1526
REMARK  710  A    between atoms: _1526  and  _1527
REMARK  711  A    between atoms: _1526  and  _1529
REMARK  712  A    between atoms: _1532  and  _1533
REMARK  713  A    between atoms: _1533  and  _1534
REMARK  714  A    between atoms: _1533  and  _1536
REMARK  715  A    between atoms: _1536  and  _1537
REMARK  716  A    between atoms: _1537  and  _1538
REMARK  717  A    between atoms: _1538  and  _1539
REMARK  718  A    between atoms: _1541  and  _1542
REMARK  719  A    between atoms: _1542  and  _1543
REMARK  720  A    between atoms: _1542  and  _1545
REMARK  721  A    between atoms: _1545  and  _1546
REMARK  722  A    between atoms: _1546  and  _1547
REMARK  723  A    between atoms: _1547  and  _1548
REMARK  724  A    between atoms: _1550  and  _1551
REMARK  725  A    between atoms: _1551  and  _1552
REMARK  726  A    between atoms: _1551  and  _1554
REMARK  727  A    between atoms: _1554  and  _1555
REMARK  728  A    between atoms: _1560  and  _1561
REMARK  729  A    between atoms: _1561  and  _1562
REMARK  730  A    between atoms: _1561  and  _1564
REMARK  731  A    between atoms: _1566  and  _1567
REMARK  732  A    between atoms: _1567  and  _1568
REMARK  733  A    between atoms: _1567  and  _1570
REMARK  734  A    between atoms: _1570  and  _1571
REMARK  735  A    between atoms: _1571  and  _1572
REMARK  736  A    between atoms: _1575  and  _1576
REMARK  737  A    between atoms: _1576  and  _1577
REMARK  738  A    between atoms: _1576  and  _1579
REMARK  739  A    between atoms: _1579  and  _1580
REMARK  740  A    between atoms: _1586  and  _1587
REMARK  741  A    between atoms: _1587  and  _1588
REMARK  742  A    between atoms: _1587  and  _1590
REMARK  743  A    between atoms: _1590  and  _1591
REMARK  744  A    between atoms: _1594  and  _1595
REMARK  745  A    between atoms: _1595  and  _1596
REMARK  746  A    between atoms: _1598  and  _1599
REMARK  747  A    between atoms: _1599  and  _1600
REMARK  748  A    between atoms: _1599  and  _1602
REMARK  749  A    between atoms: _1602  and  _1603
REMARK  750  A    between atoms: _1611  and  _1612
REMARK  751  A    between atoms: _1617  and  _1618
REMARK  752  A    between atoms: _1618  and  _1619
REMARK  753  A    between atoms: _1618  and  _1621
REMARK  754  A    between atoms: _1621  and  _1622
REMARK  755  A    between atoms: _1625  and  _1626
REMARK  756  A    between atoms: _1626  and  _1627
REMARK  757  A    between atoms: _1626  and  _1629
REMARK  758  A    between atoms: _1632  and  _1633
REMARK  759  A    between atoms: _1633  and  _1634
REMARK  760  A    between atoms: _1633  and  _1636
REMARK  761  A    between atoms: _1636  and  _1637
REMARK  762  A    between atoms: _1640  and  _1641
REMARK  763  A    between atoms: _1641  and  _1642
REMARK  764  A    between atoms: _1641  and  _1644
REMARK  765  A    between atoms: _1644  and  _1645
REMARK  766  A    between atoms: _1651  and  _1652
REMARK  767  A    between atoms: _1652  and  _1653
REMARK  768  A    between atoms: _1652  and  _1655
REMARK  769  A    between atoms: _1658  and  _1659
REMARK  770  A    between atoms: _1659  and  _1660
REMARK  771  A    between atoms: _1659  and  _1662
REMARK  772  A    between atoms: _1662  and  _1663
REMARK  773  A    between atoms: _1663  and  _1664
REMARK  774  A    between atoms: _1667  and  _1668
REMARK  775  A    between atoms: _1668  and  _1669
REMARK  776  A    between atoms: _1668  and  _1671
REMARK  777  A    between atoms: _1671  and  _1672
REMARK  778  A    between atoms: _1672  and  _1673
REMARK  779  A    between atoms: _1673  and  _1674
REMARK                            x       y       z     vdW  Elec       q    Type
REMARK                         _______ _______ _______ _____ _____    ______ ____
ROOT
ATOM      1  C   UNL     1      -6.834   8.587  31.867  0.00  0.00    +0.098 C 
ATOM      2  C   UNL     1      -6.721   7.605  32.781  0.00  0.00    +0.261 C 
ATOM      3  O   UNL     1      -7.657   7.145  33.430  0.00  0.00    -0.272 OA
ATOM      4  N   UNL     1      -5.472   7.185  32.931  0.00  0.00    -0.088 NA
ENDROOT
TORSDOF 0
REMARK  Name = /Users/mlugowska/PhD/ML_residence_time_prediction/protein_files/5NYH_protein.pdb
REMARK  779 active torsions:
REMARK  status: ('A' for Active; 'I' for Inactive)
REMARK    1  A    between atoms: _2  and  _3
REMARK    2  A    between atoms: _2  and  _5
REMARK    3  A    between atoms: _5  and  _6
REMARK    4  A    between atoms: _6  and  _7
REMARK    5  A    between atoms: _10  and  _11
REMARK    6  A    between atoms: _11  and  _12
REMARK    7  A    between atoms: _11  and  _14
REMARK    8  A    between atoms: _17  and  _18
REMARK    9  A    between atoms: _18  and  _19
REMARK   10  A    between atoms: _18  and  _21
REMARK   11  A    between atoms: _21  and  _22
REMARK   12  A    between atoms: _22  and  _23
REMARK   13  A    between atoms: _26  and  _27
REMARK   14  A    between atoms: _27  and  _28
REMARK   15  A    between atoms: _27  and  _30
REMARK   16  A    between atoms: _33  and  _34
REMARK   17  A    between atoms: _34  and  _35
REMARK   18  A    between atoms: _34  and  _37
REMARK   19  A    between atoms: _37  and  _38
REMARK   20  A    between atoms: _44  and  _45
REMARK   21  A    between atoms: _45  and  _46
REMARK   22  A    between atoms: _49  and  _50
REMARK   23  A    between atoms: _50  and  _51
REMARK   24  A    between atoms: _50  and  _53
REMARK   25  A    between atoms: _53  and  _54
REMARK   26  A    between atoms: _60  and  _61
REMARK   27  A    between atoms: _61  and  _62
REMARK   28  A    between atoms: _61  and  _64
REMARK   29  A    between atoms: _64  and  _65
REMARK   30  A    between atoms: _65  and  _66
REMARK   31  A    between atoms: _69  and  _70
REMARK   32  A    between atoms: _70  and  _71
REMARK   33  A    between atoms: _74  and  _75
REMARK   34  A    between atoms: _75  and  _76
REMARK   35  A    between atoms: _75  and  _78
REMARK   36  A    between atoms: _78  and  _79
REMARK   37  A    between atoms: _79  and  _80
REMARK   38  A    between atoms: _83  and  _84
REMARK   39  A    between atoms: _84  and  _85
REMARK   40  A    between atoms: _84  and  _87
REMARK   41  A    between atoms: _87  and  _88
REMARK   42  A    between atoms: _91  and  _92
REMARK   43  A    between atoms: _92  and  _93
REMARK   44  A    between atoms: _96  and  _97
REMARK   45  A    between atoms: _97  and  _98
REMARK   46  A    between atoms: _97  and  _100
REMARK   47  A    between atoms: _100  and  _101
REMARK   48  A    between atoms: _101  and  _102
REMARK   49  A    between atoms: _105  and  _106
REMARK   50  A    between atoms: _106  and  _107
REMARK   51  A    between atoms: _106  and  _109
REMARK   52  A    between atoms: _109  and  _110
REMARK   53  A    between atoms: _113  and  _114
REMARK   54  A    between atoms: _114  and  _115
REMARK   55  A    between atoms: _114  and  _117
REMARK   56  A    between atoms: _117  and  _118
REMARK   57  A    between atoms: _118  and  _119
REMARK   58  A    between atoms: _121  and  _122
REMARK   59  A    between atoms: _122  and  _123
REMARK   60  A    between atoms: _122  and  _125
REMARK   61  A    between atoms: _127  and  _128
REMARK   62  A    between atoms: _128  and  _129
REMARK   63  A    between atoms: _128  and  _131
REMARK   64  A    between atoms: _131  and  _132
REMARK   65  A    between atoms: _135  and  _136
REMARK   66  A    between atoms: _136  and  _137
REMARK   67  A    between atoms: _136  and  _139
REMARK   68  A    between atoms: _139  and  _140
REMARK   69  A    between atoms: _143  and  _144
REMARK   70  A    between atoms: _144  and  _145
REMARK   71  A    between atoms: _144  and  _147
REMARK   72  A    between atoms: _147  and  _148
REMARK   73  A    between atoms: _151  and  _152
REMARK   74  A    between atoms: _152  and  _153
REMARK   75  A    between atoms: _152  and  _155
REMARK   76  A    between atoms: _155  and  _156
REMARK   77  A    between atoms: _159  and  _160
REMARK   78  A    between atoms: _160  and  _161
REMARK   79  A    between atoms: _160  and  _163
REMARK   80  A    between atoms: _166  and  _167
REMARK   81  A    between atoms: _167  and  _168
REMARK   82  A    between atoms: _167  and  _170
REMARK   83  A    between atoms: _170  and  _171
REMARK   84  A    between atoms: _177  and  _178
REMARK   85  A    between atoms: _178  and  _179
REMARK   86  A    between atoms: _178  and  _181
REMARK   87  A    between atoms: _181  and  _182
REMARK   88  A    between atoms: _189  and  _190
REMARK   89  A    between atoms: _190  and  _191
REMARK   90  A    between atoms: _190  and  _193
REMARK   91  A    between atoms: _195  and  _196
REMARK   92  A    between atoms: _196  and  _197
REMARK   93  A    between atoms: _196  and  _199
REMARK   94  A    between atoms: _199  and  _200
REMARK   95  A    between atoms: _203  and  _204
REMARK   96  A    between atoms: _204  and  _205
REMARK   97  A    between atoms: _204  and  _207
REMARK   98  A    between atoms: _207  and  _208
REMARK   99  A    between atoms: _208  and  _209
REMARK  100  A    between atoms: _209  and  _210
REMARK  101  A    between atoms: _212  and  _213
REMARK  102  A    between atoms: _213  and  _214
REMARK  103  A    between atoms: _213  and  _216
REMARK  104  A    between atoms: _216  and  _217
REMARK  105  A    between atoms: _217  and  _218
REMARK  106  A    between atoms: _221  and  _222
REMARK  107  A    between atoms: _222  and  _223
REMARK  108  A    between atoms: _222  and  _225
REMARK  109  A    between atoms: _225  and  _226
REMARK  110  A    between atoms: _229  and  _230
REMARK  111  A    between atoms: _230  and  _231
REMARK  112  A    between atoms: _230  and  _233
REMARK  113  A    between atoms: _233  and  _234
REMARK  114  A    between atoms: _240  and  _241
REMARK  115  A    between atoms: _241  and  _242
REMARK  116  A    between atoms: _241  and  _244
REMARK  117  A    between atoms: _244  and  _245
REMARK  118  A    between atoms: _248  and  _249
REMARK  119  A    between atoms: _249  and  _250
REMARK  120  A    between atoms: _249  and  _252
REMARK  121  A    between atoms: _252  and  _253
REMARK  122  A    between atoms: _253  and  _254
REMARK  123  A    between atoms: _254  and  _255
REMARK  124  A    between atoms: _259  and  _260
REMARK  125  A    between atoms: _260  and  _261
REMARK  126  A    between atoms: _260  and  _263
REMARK  127  A    between atoms: _263  and  _264
REMARK  128  A    between atoms: _264  and  _265
REMARK  129  A    between atoms: _268  and  _269
REMARK  130  A    between atoms: _269  and  _270
REMARK  131  A    between atoms: _269  and  _272
REMARK  132  A    between atoms: _272  and  _273
REMARK  133  A    between atoms: _276  and  _277
REMARK  134  A    between atoms: _277  and  _278
REMARK  135  A    between atoms: _277  and  _280
REMARK  136  A    between atoms: _280  and  _281
REMARK  137  A    between atoms: _284  and  _285
REMARK  138  A    between atoms: _285  and  _286
REMARK  139  A    between atoms: _285  and  _288
REMARK  140  A    between atoms: _290  and  _291
REMARK  141  A    between atoms: _291  and  _292
REMARK  142  A    between atoms: _291  and  _294
REMARK  143  A    between atoms: _294  and  _295
REMARK  144  A    between atoms: _298  and  _299
REMARK  145  A    between atoms: _299  and  _300
REMARK  146  A    between atoms: _299  and  _302
REMARK  147  A    between atoms: _304  and  _305
REMARK  148  A    between atoms: _305  and  _306
REMARK  149  A    between atoms: _305  and  _308
REMARK  150  A    between atoms: _310  and  _311
REMARK  151  A    between atoms: _311  and  _312
REMARK  152  A    between atoms: _311  and  _314
REMARK  153  A    between atoms: _314  and  _315
REMARK  154  A    between atoms: _318  and  _319
REMARK  155  A    between atoms: _319  and  _320
REMARK  156  A    between atoms: _323  and  _324
REMARK  157  A    between atoms: _324  and  _325
REMARK  158  A    between atoms: _324  and  _327
REMARK  159  A    between atoms: _327  and  _328
REMARK  160  A    between atoms: _331  and  _332
REMARK  161  A    between atoms: _332  and  _333
REMARK  162  A    between atoms: _332  and  _335
REMARK  163  A    between atoms: _335  and  _336
REMARK  164  A    between atoms: _339  and  _340
REMARK  165  A    between atoms: _340  and  _341
REMARK  166  A    between atoms: _340  and  _343
REMARK  167  A    between atoms: _343  and  _344
REMARK  168  A    between atoms: _344  and  _345
REMARK  169  A    between atoms: _345  and  _346
REMARK  170  A    between atoms: _348  and  _349
REMARK  171  A    between atoms: _349  and  _350
REMARK  172  A    between atoms: _349  and  _352
REMARK  173  A    between atoms: _352  and  _353
REMARK  174  A    between atoms: _356  and  _357
REMARK  175  A    between atoms: _357  and  _358
REMARK  176  A    between atoms: _357  and  _360
REMARK  177  A    between atoms: _360  and  _361
REMARK  178  A    between atoms: _361  and  _362
REMARK  179  A    between atoms: _362  and  _363
REMARK  180  A    between atoms: _367  and  _368
REMARK  181  A    between atoms: _368  and  _369
REMARK  182  A    between atoms: _368  and  _371
REMARK  183  A    between atoms: _371  and  _372
REMARK  184  A    between atoms: _379  and  _380
REMARK  185  A    between atoms: _380  and  _381
REMARK  186  A    between atoms: _380  and  _383
REMARK  187  A    between atoms: _383  and  _384
REMARK  188  A    between atoms: _384  and  _385
REMARK  189  A    between atoms: _388  and  _389
REMARK  190  A    between atoms: _389  and  _390
REMARK  191  A    between atoms: _389  and  _392
REMARK  192  A    between atoms: _394  and  _395
REMARK  193  A    between atoms: _395  and  _396
REMARK  194  A    between atoms: _395  and  _398
REMARK  195  A    between atoms: _398  and  _399
REMARK  196  A    between atoms: _402  and  _403
REMARK  197  A    between atoms: _403  and  _404
REMARK  198  A    between atoms: _403  and  _406
REMARK  199  A    between atoms: _409  and  _410
REMARK  200  A    between atoms: _410  and  _411
REMARK  201  A    between atoms: _410  and  _413
REMARK  202  A    between atoms: _413  and  _414
REMARK  203  A    between atoms: _418  and  _419
REMARK  204  A    between atoms: _424  and  _425
REMARK  205  A    between atoms: _425  and  _426
REMARK  206  A    between atoms: _425  and  _428
REMARK  207  A    between atoms: _430  and  _431
REMARK  208  A    between atoms: _431  and  _432
REMARK  209  A    between atoms: _431  and  _434
REMARK  210  A    between atoms: _434  and  _435
REMARK  211  A    between atoms: _435  and  _436
REMARK  212  A    between atoms: _436  and  _437
REMARK  213  A    between atoms: _439  and  _440
REMARK  214  A    between atoms: _440  and  _441
REMARK  215  A    between atoms: _440  and  _443
REMARK  216  A    between atoms: _443  and  _444
REMARK  217  A    between atoms: _447  and  _448
REMARK  218  A    between atoms: _448  and  _449
REMARK  219  A    between atoms: _448  and  _451
REMARK  220  A    between atoms: _451  and  _452
REMARK  221  A    between atoms: _455  and  _456
REMARK  222  A    between atoms: _456  and  _457
REMARK  223  A    between atoms: _456  and  _459
REMARK  224  A    between atoms: _461  and  _462
REMARK  225  A    between atoms: _462  and  _463
REMARK  226  A    between atoms: _465  and  _466
REMARK  227  A    between atoms: _466  and  _467
REMARK  228  A    between atoms: _466  and  _469
REMARK  229  A    between atoms: _469  and  _470
REMARK  230  A    between atoms: _470  and  _471
REMARK  231  A    between atoms: _471  and  _472
REMARK  232  A    between atoms: _474  and  _475
REMARK  233  A    between atoms: _475  and  _476
REMARK  234  A    between atoms: _475  and  _478
REMARK  235  A    between atoms: _478  and  _479
REMARK  236  A    between atoms: _479  and  _480
REMARK  237  A    between atoms: _483  and  _484
REMARK  238  A    between atoms: _484  and  _485
REMARK  239  A    between atoms: _484  and  _487
REMARK  240  A    between atoms: _487  and  _488
REMARK  241  A    between atoms: _491  and  _492
REMARK  242  A    between atoms: _492  and  _493
REMARK  243  A    between atoms: _492  and  _495
REMARK  244  A    between atoms: _495  and  _496
REMARK  245  A    between atoms: _501  and  _502
REMARK  246  A    between atoms: _502  and  _503
REMARK  247  A    between atoms: _502  and  _505
REMARK  248  A    between atoms: _505  and  _506
REMARK  249  A    between atoms: _509  and  _510
REMARK  250  A    between atoms: _510  and  _511
REMARK  251  A    between atoms: _510  and  _513
REMARK  252  A    between atoms: _513  and  _514
REMARK  253  A    between atoms: _517  and  _518
REMARK  254  A    between atoms: _518  and  _519
REMARK  255  A    between atoms: _518  and  _521
REMARK  256  A    between atoms: _521  and  _522
REMARK  257  A    between atoms: _525  and  _526
REMARK  258  A    between atoms: _526  and  _527
REMARK  259  A    between atoms: _526  and  _529
REMARK  260  A    between atoms: _529  and  _530
REMARK  261  A    between atoms: _534  and  _535
REMARK  262  A    between atoms: _540  and  _541
REMARK  263  A    between atoms: _541  and  _542
REMARK  264  A    between atoms: _541  and  _544
REMARK  265  A    between atoms: _544  and  _545
REMARK  266  A    between atoms: _548  and  _549
REMARK  267  A    between atoms: _549  and  _552
REMARK  268  A    between atoms: _552  and  _553
REMARK  269  A    between atoms: _553  and  _554
REMARK  270  A    between atoms: _554  and  _555
REMARK  271  A    between atoms: _568  and  _569
REMARK  272  A    between atoms: _576  and  _577
REMARK  273  A    between atoms: _576  and  _579
REMARK  274  A    between atoms: _579  and  _580
REMARK  275  A    between atoms: _583  and  _584
REMARK  276  A    between atoms: _584  and  _585
REMARK  277  A    between atoms: _584  and  _587
REMARK  278  A    between atoms: _587  and  _588
REMARK  279  A    between atoms: _588  and  _589
REMARK  280  A    between atoms: _589  and  _590
REMARK  281  A    between atoms: _594  and  _595
REMARK  282  A    between atoms: _595  and  _596
REMARK  283  A    between atoms: _595  and  _598
REMARK  284  A    between atoms: _601  and  _602
REMARK  285  A    between atoms: _602  and  _603
REMARK  286  A    between atoms: _602  and  _605
REMARK  287  A    between atoms: _605  and  _606
REMARK  288  A    between atoms: _609  and  _610
REMARK  289  A    between atoms: _610  and  _611
REMARK  290  A    between atoms: _610  and  _613
REMARK  291  A    between atoms: _616  and  _617
REMARK  292  A    between atoms: _617  and  _618
REMARK  293  A    between atoms: _617  and  _620
REMARK  294  A    between atoms: _620  and  _621
REMARK  295  A    between atoms: _624  and  _625
REMARK  296  A    between atoms: _625  and  _626
REMARK  297  A    between atoms: _625  and  _628
REMARK  298  A    between atoms: _631  and  _632
REMARK  299  A    between atoms: _632  and  _633
REMARK  300  A    between atoms: _632  and  _635
REMARK  301  A    between atoms: _635  and  _636
REMARK  302  A    between atoms: _639  and  _640
REMARK  303  A    between atoms: _640  and  _641
REMARK  304  A    between atoms: _640  and  _643
REMARK  305  A    between atoms: _646  and  _647
REMARK  306  A    between atoms: _647  and  _648
REMARK  307  A    between atoms: _650  and  _651
REMARK  308  A    between atoms: _651  and  _652
REMARK  309  A    between atoms: _651  and  _654
REMARK  310  A    between atoms: _654  and  _655
REMARK  311  A    between atoms: _658  and  _659
REMARK  312  A    between atoms: _659  and  _660
REMARK  313  A    between atoms: _662  and  _663
REMARK  314  A    between atoms: _663  and  _664
REMARK  315  A    between atoms: _663  and  _666
REMARK  316  A    between atoms: _666  and  _667
REMARK  317  A    between atoms: _667  and  _668
REMARK  318  A    between atoms: _670  and  _671
REMARK  319  A    between atoms: _671  and  _672
REMARK  320  A    between atoms: _671  and  _674
REMARK  321  A    between atoms: _677  and  _678
REMARK  322  A    between atoms: _678  and  _679
REMARK  323  A    between atoms: _678  and  _681
REMARK  324  A    between atoms: _681  and  _682
REMARK  325  A    between atoms: _682  and  _683
REMARK  326  A    between atoms: _683  and  _684
REMARK  327  A    between atoms: _686  and  _687
REMARK  328  A    between atoms: _687  and  _688
REMARK  329  A    between atoms: _691  and  _692
REMARK  330  A    between atoms: _692  and  _693
REMARK  331  A    between atoms: _692  and  _695
REMARK  332  A    between atoms: _695  and  _696
REMARK  333  A    between atoms: _699  and  _700
REMARK  334  A    between atoms: _700  and  _701
REMARK  335  A    between atoms: _700  and  _703
REMARK  336  A    between atoms: _703  and  _704
REMARK  337  A    between atoms: _707  and  _708
REMARK  338  A    between atoms: _708  and  _709
REMARK  339  A    between atoms: _708  and  _711
REMARK  340  A    between atoms: _711  and  _712
REMARK  341  A    between atoms: _715  and  _716
REMARK  342  A    between atoms: _716  and  _717
REMARK  343  A    between atoms: _716  and  _719
REMARK  344  A    between atoms: _719  and  _720
REMARK  345  A    between atoms: _723  and  _724
REMARK  346  A    between atoms: _724  and  _725
REMARK  347  A    between atoms: _724  and  _727
REMARK  348  A    between atoms: _727  and  _728
REMARK  349  A    between atoms: _731  and  _732
REMARK  350  A    between atoms: _732  and  _733
REMARK  351  A    between atoms: _732  and  _735
REMARK  352  A    between atoms: _735  and  _736
REMARK  353  A    between atoms: _739  and  _740
REMARK  354  A    between atoms: _740  and  _741
REMARK  355  A    between atoms: _743  and  _744
REMARK  356  A    between atoms: _744  and  _745
REMARK  357  A    between atoms: _744  and  _747
REMARK  358  A    between atoms: _750  and  _751
REMARK  359  A    between atoms: _751  and  _752
REMARK  360  A    between atoms: _751  and  _754
REMARK  361  A    between atoms: _754  and  _755
REMARK  362  A    between atoms: _758  and  _759
REMARK  363  A    between atoms: _759  and  _760
REMARK  364  A    between atoms: _763  and  _764
REMARK  365  A    between atoms: _764  and  _765
REMARK  366  A    between atoms: _764  and  _767
REMARK  367  A    between atoms: _767  and  _768
REMARK  368  A    between atoms: _768  and  _769
REMARK  369  A    between atoms: _769  and  _770
REMARK  370  A    between atoms: _772  and  _773
REMARK  371  A    between atoms: _773  and  _774
REMARK  372  A    between atoms: _773  and  _776
REMARK  373  A    between atoms: _778  and  _779
REMARK  374  A    between atoms: _779  and  _780
REMARK  375  A    between atoms: _782  and  _783
REMARK  376  A    between atoms: _783  and  _784
REMARK  377  A    between atoms: _783  and  _786
REMARK  378  A    between atoms: _789  and  _790
REMARK  379  A    between atoms: _790  and  _791
REMARK  380  A    between atoms: _790  and  _793
REMARK  381  A    between atoms: _793  and  _794
REMARK  382  A    between atoms: _794  and  _795
REMARK  383  A    between atoms: _795  and  _796
REMARK  384  A    between atoms: _798  and  _799
REMARK  385  A    between atoms: _799  and  _800
REMARK  386  A    between atoms: _803  and  _804
REMARK  387  A    between atoms: _804  and  _805
REMARK  388  A    between atoms: _804  and  _807
REMARK  389  A    between atoms: _807  and  _808
REMARK  390  A    between atoms: _814  and  _815
REMARK  391  A    between atoms: _815  and  _816
REMARK  392  A    between atoms: _815  and  _818
REMARK  393  A    between atoms: _818  and  _819
REMARK  394  A    between atoms: _819  and  _820
REMARK  395  A    between atoms: _822  and  _823
REMARK  396  A    between atoms: _823  and  _824
REMARK  397  A    between atoms: _823  and  _826
REMARK  398  A    between atoms: _826  and  _827
REMARK  399  A    between atoms: _827  and  _828
REMARK  400  A    between atoms: _831  and  _832
REMARK  401  A    between atoms: _832  and  _833
REMARK  402  A    between atoms: _836  and  _837
REMARK  403  A    between atoms: _837  and  _838
REMARK  404  A    between atoms: _837  and  _840
REMARK  405  A    between atoms: _840  and  _841
REMARK  406  A    between atoms: _844  and  _845
REMARK  407  A    between atoms: _845  and  _846
REMARK  408  A    between atoms: _845  and  _848
REMARK  409  A    between atoms: _848  and  _849
REMARK  410  A    between atoms: _849  and  _850
REMARK  411  A    between atoms: _853  and  _854
REMARK  412  A    between atoms: _854  and  _855
REMARK  413  A    between atoms: _858  and  _859
REMARK  414  A    between atoms: _859  and  _860
REMARK  415  A    between atoms: _862  and  _863
REMARK  416  A    between atoms: _863  and  _864
REMARK  417  A    between atoms: _867  and  _868
REMARK  418  A    between atoms: _868  and  _869
REMARK  419  A    between atoms: _868  and  _871
REMARK  420  A    between atoms: _871  and  _872
REMARK  421  A    between atoms: _875  and  _876
REMARK  422  A    between atoms: _876  and  _877
REMARK  423  A    between atoms: _876  and  _879
REMARK  424  A    between atoms: _879  and  _880
REMARK  425  A    between atoms: _883  and  _884
REMARK  426  A    between atoms: _884  and  _887
REMARK  427  A    between atoms: _906  and  _907
REMARK  428  A    between atoms: _906  and  _909
REMARK  429  A    between atoms: _909  and  _910
REMARK  430  A    between atoms: _913  and  _914
REMARK  431  A    between atoms: _914  and  _915
REMARK  432  A    between atoms: _917  and  _918
REMARK  433  A    between atoms: _918  and  _919
REMARK  434  A    between atoms: _918  and  _921
REMARK  435  A    between atoms: _921  and  _922
REMARK  436  A    between atoms: _922  and  _923
REMARK  437  A    between atoms: _926  and  _927
REMARK  438  A    between atoms: _927  and  _928
REMARK  439  A    between atoms: _927  and  _930
REMARK  440  A    between atoms: _930  and  _931
REMARK  441  A    between atoms: _937  and  _938
REMARK  442  A    between atoms: _938  and  _939
REMARK  443  A    between atoms: _941  and  _942
REMARK  444  A    between atoms: _942  and  _943
REMARK  445  A    between atoms: _942  and  _945
REMARK  446  A    between atoms: _948  and  _949
REMARK  447  A    between atoms: _949  and  _950
REMARK  448  A    between atoms: _952  and  _953
REMARK  449  A    between atoms: _953  and  _954
REMARK  450  A    between atoms: _953  and  _956
REMARK  451  A    between atoms: _956  and  _957
REMARK  452  A    between atoms: _963  and  _964
REMARK  453  A    between atoms: _964  and  _965
REMARK  454  A    between atoms: _964  and  _967
REMARK  455  A    between atoms: _967  and  _968
REMARK  456  A    between atoms: _975  and  _976
REMARK  457  A    between atoms: _976  and  _977
REMARK  458  A    between atoms: _976  and  _979
REMARK  459  A    between atoms: _981  and  _982
REMARK  460  A    between atoms: _982  and  _983
REMARK  461  A    between atoms: _986  and  _987
REMARK  462  A    between atoms: _987  and  _988
REMARK  463  A    between atoms: _987  and  _990
REMARK  464  A    between atoms: _990  and  _991
REMARK  465  A    between atoms: _998  and  _999
REMARK  466  A    between atoms: _999  and  _1000
REMARK  467  A    between atoms: _999  and  _1002
REMARK  468  A    between atoms: _1002  and  _1003
REMARK  469  A    between atoms: _1006  and  _1007
REMARK  470  A    between atoms: _1007  and  _1008
REMARK  471  A    between atoms: _1007  and  _1010
REMARK  472  A    between atoms: _1013  and  _1014
REMARK  473  A    between atoms: _1014  and  _1015
REMARK  474  A    between atoms: _1018  and  _1019
REMARK  475  A    between atoms: _1019  and  _1020
REMARK  476  A    between atoms: _1019  and  _1022
REMARK  477  A    between atoms: _1023  and  _1024
REMARK  478  A    between atoms: _1027  and  _1028
REMARK  479  A    between atoms: _1028  and  _1029
REMARK  480  A    between atoms: _1028  and  _1031
REMARK  481  A    between atoms: _1031  and  _1032
REMARK  482  A    between atoms: _1032  and  _1033
REMARK  483  A    between atoms: _1033  and  _1034
REMARK  484  A    between atoms: _1036  and  _1037
REMARK  485  A    between atoms: _1037  and  _1038
REMARK  486  A    between atoms: _1037  and  _1040
REMARK  487  A    between atoms: _1043  and  _1044
REMARK  488  A    between atoms: _1044  and  _1045
REMARK  489  A    between atoms: _1044  and  _1047
REMARK  490  A    between atoms: _1050  and  _1051
REMARK  491  A    between atoms: _1051  and  _1052
REMARK  492  A    between atoms: _1051  and  _1054
REMARK  493  A    between atoms: _1057  and  _1058
REMARK  494  A    between atoms: _1058  and  _1059
REMARK  495  A    between atoms: _1058  and  _1061
REMARK  496  A    between atoms: _1061  and  _1062
REMARK  497  A    between atoms: _1065  and  _1066
REMARK  498  A    between atoms: _1066  and  _1067
REMARK  499  A    between atoms: _1066  and  _1069
REMARK  500  A    between atoms: _1072  and  _1073
REMARK  501  A    between atoms: _1073  and  _1074
REMARK  502  A    between atoms: _1073  and  _1076
REMARK  503  A    between atoms: _1076  and  _1077
REMARK  504  A    between atoms: _1077  and  _1078
REMARK  505  A    between atoms: _1078  and  _1079
REMARK  506  A    between atoms: _1081  and  _1082
REMARK  507  A    between atoms: _1082  and  _1083
REMARK  508  A    between atoms: _1082  and  _1085
REMARK  509  A    between atoms: _1085  and  _1086
REMARK  510  A    between atoms: _1091  and  _1092
REMARK  511  A    between atoms: _1092  and  _1093
REMARK  512  A    between atoms: _1092  and  _1095
REMARK  513  A    between atoms: _1095  and  _1096
REMARK  514  A    between atoms: _1099  and  _1100
REMARK  515  A    between atoms: _1100  and  _1101
REMARK  516  A    between atoms: _1100  and  _1103
REMARK  517  A    between atoms: _1103  and  _1104
REMARK  518  A    between atoms: _1107  and  _1108
REMARK  519  A    between atoms: _1108  and  _1111
REMARK  520  A    between atoms: _1111  and  _1112
REMARK  521  A    between atoms: _1125  and  _1127
REMARK  522  A    between atoms: _1134  and  _1135
REMARK  523  A    between atoms: _1134  and  _1137
REMARK  524  A    between atoms: _1137  and  _1138
REMARK  525  A    between atoms: _1138  and  _1139
REMARK  526  A    between atoms: _1142  and  _1143
REMARK  527  A    between atoms: _1143  and  _1144
REMARK  528  A    between atoms: _1143  and  _1146
REMARK  529  A    between atoms: _1146  and  _1147
REMARK  530  A    between atoms: _1154  and  _1155
REMARK  531  A    between atoms: _1155  and  _1156
REMARK  532  A    between atoms: _1159  and  _1160
REMARK  533  A    between atoms: _1160  and  _1161
REMARK  534  A    between atoms: _1160  and  _1163
REMARK  535  A    between atoms: _1163  and  _1164
REMARK  536  A    between atoms: _1173  and  _1174
REMARK  537  A    between atoms: _1174  and  _1175
REMARK  538  A    between atoms: _1174  and  _1177
REMARK  539  A    between atoms: _1177  and  _1178
REMARK  540  A    between atoms: _1178  and  _1179
REMARK  541  A    between atoms: _1182  and  _1183
REMARK  542  A    between atoms: _1183  and  _1184
REMARK  543  A    between atoms: _1183  and  _1186
REMARK  544  A    between atoms: _1188  and  _1189
REMARK  545  A    between atoms: _1189  and  _1190
REMARK  546  A    between atoms: _1189  and  _1192
REMARK  547  A    between atoms: _1194  and  _1195
REMARK  548  A    between atoms: _1195  and  _1196
REMARK  549  A    between atoms: _1199  and  _1200
REMARK  550  A    between atoms: _1200  and  _1201
REMARK  551  A    between atoms: _1203  and  _1204
REMARK  552  A    between atoms: _1204  and  _1205
REMARK  553  A    between atoms: _1207  and  _1208
REMARK  554  A    between atoms: _1208  and  _1209
REMARK  555  A    between atoms: _1208  and  _1211
REMARK  556  A    between atoms: _1213  and  _1214
REMARK  557  A    between atoms: _1214  and  _1215
REMARK  558  A    between atoms: _1214  and  _1217
REMARK  559  A    between atoms: _1217  and  _1218
REMARK  560  A    between atoms: _1224  and  _1225
REMARK  561  A    between atoms: _1225  and  _1226
REMARK  562  A    between atoms: _1225  and  _1228
REMARK  563  A    between atoms: _1231  and  _1232
REMARK  564  A    between atoms: _1232  and  _1233
REMARK  565  A    between atoms: _1232  and  _1235
REMARK  566  A    between atoms: _1238  and  _1239
REMARK  567  A    between atoms: _1239  and  _1240
REMARK  568  A    between atoms: _1239  and  _1242
REMARK  569  A    between atoms: _1242  and  _1243
REMARK  570  A    between atoms: _1243  and  _1244
REMARK  571  A    between atoms: _1244  and  _1245
REMARK  572  A    between atoms: _1249  and  _1250
REMARK  573  A    between atoms: _1250  and  _1251
REMARK  574  A    between atoms: _1250  and  _1253
REMARK  575  A    between atoms: _1256  and  _1257
REMARK  576  A    between atoms: _1257  and  _1258
REMARK  577  A    between atoms: _1257  and  _1260
REMARK  578  A    between atoms: _1260  and  _1261
REMARK  579  A    between atoms: _1264  and  _1265
REMARK  580  A    between atoms: _1265  and  _1266
REMARK  581  A    between atoms: _1265  and  _1268
REMARK  582  A    between atoms: _1271  and  _1272
REMARK  583  A    between atoms: _1272  and  _1273
REMARK  584  A    between atoms: _1275  and  _1276
REMARK  585  A    between atoms: _1276  and  _1277
REMARK  586  A    between atoms: _1276  and  _1279
REMARK  587  A    between atoms: _1279  and  _1280
REMARK  588  A    between atoms: _1280  and  _1281
REMARK  589  A    between atoms: _1285  and  _1286
REMARK  590  A    between atoms: _1291  and  _1293
REMARK  591  A    between atoms: _1298  and  _1299
REMARK  592  A    between atoms: _1299  and  _1301
REMARK  593  A    between atoms: _1300  and  _1301
REMARK  594  A    between atoms: _1304  and  _1305
REMARK  595  A    between atoms: _1305  and  _1306
REMARK  596  A    between atoms: _1308  and  _1309
REMARK  597  A    between atoms: _1309  and  _1310
REMARK  598  A    between atoms: _1309  and  _1312
REMARK  599  A    between atoms: _1312  and  _1313
REMARK  600  A    between atoms: _1313  and  _1314
REMARK  601  A    between atoms: _1314  and  _1315
REMARK  602  A    between atoms: _1319  and  _1320
REMARK  603  A    between atoms: _1320  and  _1321
REMARK  604  A    between atoms: _1323  and  _1324
REMARK  605  A    between atoms: _1324  and  _1325
REMARK  606  A    between atoms: _1324  and  _1327
REMARK  607  A    between atoms: _1330  and  _1331
REMARK  608  A    between atoms: _1331  and  _1332
REMARK  609  A    between atoms: _1331  and  _1334
REMARK  610  A    between atoms: _1334  and  _1335
REMARK  611  A    between atoms: _1335  and  _1336
REMARK  612  A    between atoms: _1336  and  _1337
REMARK  613  A    between atoms: _1339  and  _1340
REMARK  614  A    between atoms: _1340  and  _1341
REMARK  615  A    between atoms: _1340  and  _1343
REMARK  616  A    between atoms: _1346  and  _1347
REMARK  617  A    between atoms: _1347  and  _1348
REMARK  618  A    between atoms: _1347  and  _1350
REMARK  619  A    between atoms: _1350  and  _1351
REMARK  620  A    between atoms: _1354  and  _1355
REMARK  621  A    between atoms: _1355  and  _1356
REMARK  622  A    between atoms: _1355  and  _1358
REMARK  623  A    between atoms: _1358  and  _1359
REMARK  624  A    between atoms: _1362  and  _1363
REMARK  625  A    between atoms: _1363  and  _1364
REMARK  626  A    between atoms: _1363  and  _1366
REMARK  627  A    between atoms: _1366  and  _1367
REMARK  628  A    between atoms: _1372  and  _1373
REMARK  629  A    between atoms: _1373  and  _1374
REMARK  630  A    between atoms: _1373  and  _1376
REMARK  631  A    between atoms: _1376  and  _1377
REMARK  632  A    between atoms: _1380  and  _1381
REMARK  633  A    between atoms: _1381  and  _1382
REMARK  634  A    between atoms: _1381  and  _1384
REMARK  635  A    between atoms: _1384  and  _1385
REMARK  636  A    between atoms: _1385  and  _1386
REMARK  637  A    between atoms: _1386  and  _1387
REMARK  638  A    between atoms: _1389  and  _1390
REMARK  639  A    between atoms: _1390  and  _1391
REMARK  640  A    between atoms: _1390  and  _1393
REMARK  641  A    between atoms: _1393  and  _1394
REMARK  642  A    between atoms: _1394  and  _1395
REMARK  643  A    between atoms: _1398  and  _1399
REMARK  644  A    between atoms: _1399  and  _1400
REMARK  645  A    between atoms: _1399  and  _1402
REMARK  646  A    between atoms: _1402  and  _1403
REMARK  647  A    between atoms: _1406  and  _1407
REMARK  648  A    between atoms: _1407  and  _1408
REMARK  649  A    between atoms: _1407  and  _1410
REMARK  650  A    between atoms: _1410  and  _1411
REMARK  651  A    between atoms: _1411  and  _1412
REMARK  652  A    between atoms: _1415  and  _1416
REMARK  653  A    between atoms: _1416  and  _1417
REMARK  654  A    between atoms: _1416  and  _1419
REMARK  655  A    between atoms: _1422  and  _1423
REMARK  656  A    between atoms: _1423  and  _1424
REMARK  657  A    between atoms: _1423  and  _1426
REMARK  658  A    between atoms: _1426  and  _1427
REMARK  659  A    between atoms: _1427  and  _1428
REMARK  660  A    between atoms: _1431  and  _1432
REMARK  661  A    between atoms: _1432  and  _1433
REMARK  662  A    between atoms: _1432  and  _1435
REMARK  663  A    between atoms: _1435  and  _1436
REMARK  664  A    between atoms: _1443  and  _1444
REMARK  665  A    between atoms: _1444  and  _1445
REMARK  666  A    between atoms: _1444  and  _1447
REMARK  667  A    between atoms: _1447  and  _1448
REMARK  668  A    between atoms: _1451  and  _1452
REMARK  669  A    between atoms: _1452  and  _1453
REMARK  670  A    between atoms: _1452  and  _1455
REMARK  671  A    between atoms: _1455  and  _1456
REMARK  672  A    between atoms: _1456  and  _1457
REMARK  673  A    between atoms: _1460  and  _1461
REMARK  674  A    between atoms: _1461  and  _1462
REMARK  675  A    between atoms: _1461  and  _1464
REMARK  676  A    between atoms: _1464  and  _1465
REMARK  677  A    between atoms: _1465  and  _1466
REMARK  678  A    between atoms: _1469  and  _1470
REMARK  679  A    between atoms: _1470  and  _1471
REMARK  680  A    between atoms: _1470  and  _1473
REMARK  681  A    between atoms: _1473  and  _1474
REMARK  682  A    between atoms: _1474  and  _1475
REMARK  683  A    between atoms: _1475  and  _1476
REMARK  684  A    between atoms: _1480  and  _1481
REMARK  685  A    between atoms: _1481  and  _1482
REMARK  686  A    between atoms: _1481  and  _1484
REMARK  687  A    between atoms: _1484  and  _1485
REMARK  688  A    between atoms: _1485  and  _1486
REMARK  689  A    between atoms: _1486  and  _1487
REMARK  690  A    between atoms: _1491  and  _1492
REMARK  691  A    between atoms: _1492  and  _1493
REMARK  692  A    between atoms: _1492  and  _1495
REMARK  693  A    between atoms: _1495  and  _1496
REMARK  694  A    between atoms: _1499  and  _1500
REMARK  695  A    between atoms: _1500  and  _1501
REMARK  696  A    between atoms: _1500  and  _1503
REMARK  697  A    between atoms: _1503  and  _1504
REMARK  698  A    between atoms: _1504  and  _1505
REMARK  699  A    between atoms: _1505  and  _1506
REMARK  700  A    between atoms: _1508  and  _1509
REMARK  701  A    between atoms: _1509  and  _1510
REMARK  702  A    between atoms: _1509  and  _1512
REMARK  703  A    between atoms: _1512  and  _1513
REMARK  704  A    between atoms: _1513  and  _1514
REMARK  705  A    between atoms: _1517  and  _1518
REMARK  706  A    between atoms: _1518  and  _1519
REMARK  707  A    between atoms: _1518  and  _1521
REMARK  708  A    between atoms: _1521  and  _1522
REMARK  709  A    between atoms: _1525  and  _1526
REMARK  710  A    between atoms: _1526  and  _1527
REMARK  711  A    between atoms: _1526  and  _1529
REMARK  712  A    between atoms: _1532  and  _1533
REMARK  713  A    between atoms: _1533  and  _1534
REMARK  714  A    between atoms: _1533  and  _1536
REMARK  715  A    between atoms: _1536  and  _1537
REMARK  716  A    between atoms: _1537  and  _1538
REMARK  717  A    between atoms: _1538  and  _1539
REMARK  718  A    between atoms: _1541  and  _1542
REMARK  719  A    between atoms: _1542  and  _1543
REMARK  720  A    between atoms: _1542  and  _1545
REMARK  721  A    between atoms: _1545  and  _1546
REMARK  722  A    between atoms: _1546  and  _1547
REMARK  723  A    between atoms: _1547  and  _1548
REMARK  724  A    between atoms: _1550  and  _1551
REMARK  725  A    between atoms: _1551  and  _1552
REMARK  726  A    between atoms: _1551  and  _1554
REMARK  727  A    between atoms: _1554  and  _1555
REMARK  728  A    between atoms: _1560  and  _1561
REMARK  729  A    between atoms: _1561  and  _1562
REMARK  730  A    between atoms: _1561  and  _1564
REMARK  731  A    between atoms: _1566  and  _1567
REMARK  732  A    between atoms: _1567  and  _1568
REMARK  733  A    between atoms: _1567  and  _1570
REMARK  734  A    between atoms: _1570  and  _1571
REMARK  735  A    between atoms: _1571  and  _1572
REMARK  736  A    between atoms: _1575  and  _1576
REMARK  737  A    between atoms: _1576  and  _1577
REMARK  738  A    between atoms: _1576  and  _1579
REMARK  739  A    between atoms: _1579  and  _1580
REMARK  740  A    between atoms: _1586  and  _1587
REMARK  741  A    between atoms: _1587  and  _1588
REMARK  742  A    between atoms: _1587  and  _1590
REMARK  743  A    between atoms: _1590  and  _1591
REMARK  744  A    between atoms: _1594  and  _1595
REMARK  745  A    between atoms: _1595  and  _1596
REMARK  746  A    between atoms: _1598  and  _1599
REMARK  747  A    between atoms: _1599  and  _1600
REMARK  748  A    between atoms: _1599  and  _1602
REMARK  749  A    between atoms: _1602  and  _1603
REMARK  750  A    between atoms: _1611  and  _1612
REMARK  751  A    between atoms: _1617  and  _1618
REMARK  752  A    between atoms: _1618  and  _1619
REMARK  753  A    between atoms: _1618  and  _1621
REMARK  754  A    between atoms: _1621  and  _1622
REMARK  755  A    between atoms: _1625  and  _1626
REMARK  756  A    between atoms: _1626  and  _1627
REMARK  757  A    between atoms: _1626  and  _1629
REMARK  758  A    between atoms: _1632  and  _1633
REMARK  759  A    between atoms: _1633  and  _1634
REMARK  760  A    between atoms: _1633  and  _1636
REMARK  761  A    between atoms: _1636  and  _1637
REMARK  762  A    between atoms: _1640  and  _1641
REMARK  763  A    between atoms: _1641  and  _1642
REMARK  764  A    between atoms: _1641  and  _1644
REMARK  765  A    between atoms: _1644  and  _1645
REMARK  766  A    between atoms: _1651  and  _1652
REMARK  767  A    between atoms: _1652  and  _1653
REMARK  768  A    between atoms: _1652  and  _1655
REMARK  769  A    between atoms: _1658  and  _1659
REMARK  770  A    between atoms: _1659  and  _1660
REMARK  771  A    between atoms: _1659  and  _1662
REMARK  772  A    between atoms: _1662  and  _1663
REMARK  773  A    between atoms: _1663  and  _1664
REMARK  774  A    between atoms: _1667  and  _1668
REMARK  775  A    between atoms: _1668  and  _1669
REMARK  776  A    between atoms: _1668  and  _1671
REMARK  777  A    between atoms: _1671  and  _1672
REMARK  778  A    between atoms: _1672  and  _1673
REMARK  779  A    between atoms: _1673  and  _1674
REMARK                            x       y       z     vdW  Elec       q    Type
REMARK                         _______ _______ _______ _____ _____    ______ ____
ROOT
ATOM      1  C   ASN A  21      10.406  36.851  19.402  0.00  0.00    +0.262 C 
ATOM      2  O   ASN A  21      10.832  37.807  20.053  0.00  0.00    -0.271 OA
ATOM      3  N   LEU A  22       9.684  35.849  19.925  0.00  0.00    -0.196 NA
ENDROOT
BRANCH   1   4
ATOM      4  CA  ASN A  21      10.700  36.769  17.927  0.00  0.00    +0.182 C 
BRANCH   4   7
ATOM      5  C   ASN A  20      12.345  34.888  18.058  0.00  0.00    +0.262 C 
ATOM      6  O   ASN A  20      12.959  35.362  19.022  0.00  0.00    -0.271 OA
ATOM      7  N   ASN A  21      11.266  35.479  17.488  0.00  0.00    -0.196 NA
BRANCH   5   8
ATOM      8  CA  ASN A  20      12.932  33.682  17.360  0.00  0.00    +0.182 C 
BRANCH   8  11
ATOM      9  C   ILE A  19      12.460  31.297  17.409  0.00  0.00    +0.262 C 
ATOM     10  O   ILE A  19      13.471  31.068  18.065  0.00  0.00    -0.271 OA
ATOM     11  N   ASN A  20      12.076  32.534  17.064  0.00  0.00    -0.196 NA
BRANCH   9  12
ATOM     12  CA  ILE A  19      11.624  30.122  16.927  0.00  0.00    +0.173 C 
BRANCH  12  15
ATOM     13  C   LEU A  18       9.544  30.208  18.161  0.00  0.00    +0.262 C 
ATOM     14  O   LEU A  18      10.101  29.875  19.207  0.00  0.00    -0.271 OA
ATOM     15  N   ILE A  19      10.188  30.378  17.007  0.00  0.00    -0.196 NA
BRANCH  13  16
ATOM     16  CA  LEU A  18       8.046  30.395  18.135  0.00  0.00    +0.173 C 
BRANCH  16  19
ATOM     17  C   ASP A  17       7.934  32.844  17.735  0.00  0.00    +0.262 C 
ATOM     18  O   ASP A  17       8.693  33.136  18.656  0.00  0.00    -0.271 OA
ATOM     19  N   LEU A  18       7.610  31.589  17.417  0.00  0.00    -0.196 NA
BRANCH  17  20
ATOM     20  CA  ASP A  17       7.326  33.936  16.848  0.00  0.00    +0.184 C 
BRANCH  20  23
ATOM     21  C   ALA A  16       8.868  33.532  14.955  0.00  0.00    +0.262 C 
ATOM     22  O   ALA A  16       9.859  33.632  15.681  0.00  0.00    -0.271 OA
ATOM     23  N   ASP A  17       7.606  33.673  15.427  0.00  0.00    -0.196 NA
BRANCH  21  24
ATOM     24  CA  ALA A  16       9.044  33.168  13.463  0.00  0.00    +0.173 C 
ATOM     25  CB  ALA A  16       8.963  34.411  12.590  0.00  0.00    +0.033 C 
BRANCH  24  28
ATOM     26  C   LYS A  15       7.930  30.943  13.594  0.00  0.00    +0.262 C 
ATOM     27  O   LYS A  15       8.635  30.567  14.535  0.00  0.00    -0.271 OA
ATOM     28  N   ALA A  16       8.035  32.175  13.035  0.00  0.00    -0.196 NA
BRANCH  26  29
ATOM     29  CA  LYS A  15       6.823  30.015  13.071  0.00  0.00    +0.173 C 
BRANCH  29  32
ATOM     30  C   THR A  14       5.020  31.437  13.921  0.00  0.00    +0.264 C 
ATOM     31  O   THR A  14       5.453  31.378  15.081  0.00  0.00    -0.271 OA
ATOM     32  N   LYS A  15       5.623  30.817  12.890  0.00  0.00    -0.196 NA
BRANCH  30  33
ATOM     33  CA  THR A  14       3.804  32.328  13.579  0.00  0.00    +0.203 C 
BRANCH  33  34
ATOM     34  CB  THR A  14       4.314  33.569  12.831  0.00  0.00    +0.181 C 
ATOM     35  OG1 THR A  14       5.297  34.207  13.657  0.00  0.00    -0.221 OA
ATOM     36  CG2 THR A  14       3.187  34.556  12.466  0.00  0.00    +0.038 C 
ENDBRANCH  33  34
BRANCH  33  39
ATOM     37  C   MET A  13       2.274  32.010  15.479  0.00  0.00    +0.262 C 
ATOM     38  O   MET A  13       1.911  30.885  15.098  0.00  0.00    -0.271 OA
ATOM     39  N   THR A  14       3.175  32.747  14.831  0.00  0.00    -0.194 NA
BRANCH  37  40
ATOM     40  CA  MET A  13       1.769  32.607  16.796  0.00  0.00    +0.174 C 
BRANCH  40  43
ATOM     41  C   GLY A  12      -0.513  33.276  17.293  0.00  0.00    +0.264 C 
ATOM     42  O   GLY A  12      -0.212  34.485  17.270  0.00  0.00    -0.271 OA
ATOM     43  N   MET A  13       0.378  32.300  17.055  0.00  0.00    -0.196 NA
BRANCH  41  44
ATOM     44  CA  GLY A  12      -1.930  32.834  17.620  0.00  0.00    +0.201 C 
BRANCH  44  46
ATOM     45  C   ILE A  11      -3.296  34.757  16.921  0.00  0.00    +0.262 C 
ATOM     46  N   GLY A  12      -2.789  33.983  17.893  0.00  0.00    -0.194 NA
ATOM     47  O   ILE A  11      -3.030  34.618  15.728  0.00  0.00    -0.271 OA
BRANCH  45  48
ATOM     48  CA  ILE A  11      -4.173  35.958  17.349  0.00  0.00    +0.173 C 
BRANCH  48  50
ATOM     49  C   GLY A  10      -5.773  34.803  18.832  0.00  0.00    +0.264 C 
ATOM     50  N   ILE A  11      -4.844  35.752  18.626  0.00  0.00    -0.196 NA
ATOM     51  O   GLY A  10      -6.054  33.940  17.981  0.00  0.00    -0.271 OA
BRANCH  49  52
ATOM     52  CA  GLY A  10      -6.406  34.791  20.215  0.00  0.00    +0.201 C 
BRANCH  52  54
ATOM     53  C   THR A   9      -8.287  33.271  19.927  0.00  0.00    +0.264 C 
ATOM     54  N   GLY A  10      -7.114  33.550  20.495  0.00  0.00    -0.194 NA
ATOM     55  O   THR A   9      -8.843  34.040  19.124  0.00  0.00    -0.271 OA
BRANCH  53  56
ATOM     56  CA  THR A   9      -8.904  31.890  20.285  0.00  0.00    +0.203 C 
BRANCH  56  58
ATOM     57  C   ASP A   8      -7.826  30.705  22.103  0.00  0.00    +0.262 C 
ATOM     58  N   THR A   9      -8.694  31.628  21.704  0.00  0.00    -0.194 NA
ATOM     59  O   ASP A   8      -7.128  30.046  21.312  0.00  0.00    -0.271 OA
BRANCH  57  60
ATOM     60  CA  ASP A   8      -7.644  30.564  23.622  0.00  0.00    +0.184 C 
BRANCH  60  63
ATOM     61  C   VAL A   7      -7.587  28.504  24.901  0.00  0.00    +0.262 C 
ATOM     62  O   VAL A   7      -8.497  28.880  25.637  0.00  0.00    -0.271 OA
ATOM     63  N   ASP A   8      -7.080  29.256  23.938  0.00  0.00    -0.196 NA
BRANCH  61  64
ATOM     64  CA  VAL A   7      -7.040  27.080  25.058  0.00  0.00    +0.173 C 
BRANCH  64  65
ATOM     65  CB  VAL A   7      -8.069  26.072  24.433  0.00  0.00    +0.029 C 
ATOM     66  CG2 VAL A   7      -7.680  24.616  24.692  0.00  0.00    +0.002 C 
ATOM     67  CG1 VAL A   7      -8.242  26.318  22.927  0.00  0.00    +0.002 C 
ENDBRANCH  64  65
BRANCH  64  69
ATOM     68  C   ILE A   6      -5.537  26.676  26.961  0.00  0.00    +0.262 C 
ATOM     69  N   VAL A   7      -6.783  26.818  26.478  0.00  0.00    -0.196 NA
ATOM     70  O   ILE A   6      -4.521  26.752  26.253  0.00  0.00    -0.271 OA
BRANCH  68  71
ATOM     71  CA  ILE A   6      -5.401  26.349  28.444  0.00  0.00    +0.173 C 
BRANCH  71  74
ATOM     72  C   THR A   5      -5.534  23.933  29.003  0.00  0.00    +0.264 C 
ATOM     73  O   THR A   5      -6.660  24.022  29.515  0.00  0.00    -0.271 OA
ATOM     74  N   ILE A   6      -4.864  24.975  28.494  0.00  0.00    -0.196 NA
BRANCH  72  75
ATOM     75  CA  THR A   5      -4.843  22.567  28.911  0.00  0.00    +0.203 C 
BRANCH  75  76
ATOM     76  CB  THR A   5      -5.457  21.654  27.816  0.00  0.00    +0.181 C 
ATOM     77  OG1 THR A   5      -4.675  20.463  27.701  0.00  0.00    -0.221 OA
ATOM     78  CG2 THR A   5      -5.530  22.330  26.450  0.00  0.00    +0.038 C 
ENDBRANCH  75  76
BRANCH  75  81
ATOM     79  C   LEU A   4      -3.839  21.706  30.970  0.00  0.00    +0.262 C 
ATOM     80  O   LEU A   4      -2.738  22.118  30.698  0.00  0.00    -0.271 OA
ATOM     81  N   THR A   5      -4.896  21.894  30.204  0.00  0.00    -0.194 NA
BRANCH  79  82
ATOM     82  CA  LEU A   4      -4.080  20.933  32.265  0.00  0.00    +0.173 C 
BRANCH  82  85
ATOM     83  C   THR A   3      -3.657  18.532  32.154  0.00  0.00    +0.264 C 
ATOM     84  O   THR A   3      -4.837  18.233  32.387  0.00  0.00    -0.271 OA
ATOM     85  N   LEU A   4      -3.215  19.781  32.124  0.00  0.00    -0.196 NA
BRANCH  83  86
ATOM     86  CA  THR A   3      -2.636  17.457  31.833  0.00  0.00    +0.203 C 
BRANCH  86  87
ATOM     87  CB  THR A   3      -2.645  17.192  30.303  0.00  0.00    +0.181 C 
ATOM     88  OG1 THR A   3      -3.941  16.706  29.900  0.00  0.00    -0.221 OA
ATOM     89  CG2 THR A   3      -1.536  16.247  29.850  0.00  0.00    +0.038 C 
ENDBRANCH  86  87
BRANCH  86  92
ATOM     90  C   ARG A   2      -1.907  15.682  33.378  0.00  0.00    +0.262 C 
ATOM     91  O   ARG A   2      -0.749  16.119  33.436  0.00  0.00    -0.271 OA
ATOM     92  N   THR A   3      -2.866  16.242  32.609  0.00  0.00    -0.194 NA
BRANCH  90  93
ATOM     93  CA  ARG A   2      -2.325  14.385  34.121  0.00  0.00    +0.173 C 
BRANCH  93  95
ATOM     94  C   ASP A   1      -2.577  12.984  32.069  0.00  0.00    +0.260 C 
ATOM     95  N   ARG A   2      -3.057  13.482  33.223  0.00  0.00    -0.197 NA
ATOM     96  O   ASP A   1      -1.421  13.188  31.673  0.00  0.00    -0.272 OA
BRANCH  94  98
ATOM     97  N   ASP A   1      -4.798  11.814  31.901  0.00  0.00    -0.122 NA
ATOM     98  CA  ASP A   1      -3.540  12.140  31.208  0.00  0.00    +0.181 C 
BRANCH  98  99
ATOM     99  CB  ASP A   1      -3.831  12.884  29.893  0.00  0.00    +0.142 C 
BRANCH  99 100
ATOM    100  CG  ASP A   1      -4.590  12.104  28.827  0.00  0.00    +0.367 C 
ATOM    101  OD2 ASP A   1      -4.648  10.853  28.924  0.00  0.00    -0.246 OA
ATOM    102  OD1 ASP A   1      -5.079  12.738  27.866  0.00  0.00    -0.246 OA
ENDBRANCH  99 100
ENDBRANCH  98  99
ENDBRANCH  94  98
ENDBRANCH  93  95
BRANCH  93 103
ATOM    103  CB  ARG A   2      -1.146  13.703  34.843  0.00  0.00    +0.035 C 
BRANCH 103 104
ATOM    104  CG  ARG A   2      -0.873  14.367  36.190  0.00  0.00    +0.049 C 
BRANCH 104 105
ATOM    105  CD  ARG A   2       0.569  14.231  36.626  0.00  0.00    +0.220 C 
BRANCH 105 106
ATOM    106  NE  ARG A   2       0.955  12.841  36.847  0.00  0.00    -0.087 NA
ATOM    107  CZ  ARG A   2       2.197  12.380  36.739  0.00  0.00    +0.535 C 
ATOM    108  NH2 ARG A   2       2.457  11.103  36.976  0.00  0.00    +0.135 NA
ATOM    109  NH1 ARG A   2       3.189  13.194  36.391  0.00  0.00    +0.135 NA
ENDBRANCH 105 106
ENDBRANCH 104 105
ENDBRANCH 103 104
ENDBRANCH  93 103
ENDBRANCH  90  93
ENDBRANCH  86  92
ENDBRANCH  83  86
ENDBRANCH  82  85
BRANCH  82 110
ATOM    110  CB  LEU A   4      -3.758  21.786  33.475  0.00  0.00    +0.031 C 
BRANCH 110 111
ATOM    111  CG  LEU A   4      -4.555  23.082  33.577  0.00  0.00    +0.002 C 
ATOM    112  CD2 LEU A   4      -4.161  23.830  34.821  0.00  0.00    +0.000 C 
ATOM    113  CD1 LEU A   4      -6.033  22.781  33.624  0.00  0.00    +0.000 C 
ENDBRANCH 110 111
ENDBRANCH  82 110
ENDBRANCH  79  82
ENDBRANCH  75  81
ENDBRANCH  72  75
ENDBRANCH  71  74
BRANCH  71 114
ATOM    114  CB  ILE A   6      -4.499  27.394  29.180  0.00  0.00    +0.029 C 
ATOM    115  CG2 ILE A   6      -5.099  28.816  29.028  0.00  0.00    +0.002 C 
BRANCH 114 116
ATOM    116  CG1 ILE A   6      -4.307  27.048  30.689  0.00  0.00    +0.002 C 
ATOM    117  CD1 ILE A   6      -3.070  26.238  31.023  0.00  0.00    +0.000 C 
ENDBRANCH 114 116
ENDBRANCH  71 114
ENDBRANCH  68  71
ENDBRANCH  64  69
ENDBRANCH  61  64
ENDBRANCH  60  63
BRANCH  60 118
ATOM    118  CB  ASP A   8      -6.838  31.722  24.229  0.00  0.00    +0.145 C 
BRANCH 118 119
ATOM    119  CG  ASP A   8      -5.491  31.903  23.579  0.00  0.00    +0.367 C 
ATOM    120  OD2 ASP A   8      -4.469  31.737  24.278  0.00  0.00    -0.246 OA
ATOM    121  OD1 ASP A   8      -5.457  32.253  22.383  0.00  0.00    -0.246 OA
ENDBRANCH 118 119
ENDBRANCH  60 118
ENDBRANCH  57  60
ENDBRANCH  56  58
BRANCH  56 122
ATOM    122  CB  THR A   9     -10.402  31.807  19.952  0.00  0.00    +0.181 C 
ATOM    123  OG1 THR A   9     -11.095  32.646  20.874  0.00  0.00    -0.221 OA
ATOM    124  CG2 THR A   9     -10.944  30.352  19.978  0.00  0.00    +0.038 C 
ENDBRANCH  56 122
ENDBRANCH  53  56
ENDBRANCH  52  54
ENDBRANCH  49  52
ENDBRANCH  48  50
BRANCH  48 125
ATOM    125  CB  ILE A  11      -3.387  37.291  17.340  0.00  0.00    +0.029 C 
ATOM    126  CG2 ILE A  11      -2.158  37.211  18.273  0.00  0.00    +0.002 C 
BRANCH 125 127
ATOM    127  CG1 ILE A  11      -3.018  37.718  15.893  0.00  0.00    +0.002 C 
ATOM    128  CD1 ILE A  11      -2.613  39.133  15.721  0.00  0.00    +0.000 C 
ENDBRANCH 125 127
ENDBRANCH  48 125
ENDBRANCH  45  48
ENDBRANCH  44  46
ENDBRANCH  41  44
ENDBRANCH  40  43
BRANCH  40 129
ATOM    129  CB  MET A  13       2.640  32.098  17.958  0.00  0.00    +0.043 C 
BRANCH 129 130
ATOM    130  CG  MET A  13       2.354  32.775  19.302  0.00  0.00    +0.060 C 
BRANCH 130 131
ATOM    131  SD  MET A  13       3.202  31.953  20.676  0.00  0.00    -0.139 S 
ATOM    132  CE  MET A  13       2.158  30.523  20.865  0.00  0.00    +0.069 C 
ENDBRANCH 130 131
ENDBRANCH 129 130
ENDBRANCH  40 129
ENDBRANCH  37  40
ENDBRANCH  33  39
ENDBRANCH  30  33
ENDBRANCH  29  32
BRANCH  29 133
ATOM    133  CB  LYS A  15       7.246  29.374  11.742  0.00  0.00    +0.031 C 
BRANCH 133 134
ATOM    134  CG  LYS A  15       8.186  28.194  11.950  0.00  0.00    +0.004 C 
BRANCH 134 135
ATOM    135  CD  LYS A  15       8.675  27.609  10.643  0.00  0.00    +0.021 C 
BRANCH 135 136
ATOM    136  CE  LYS A  15       9.505  26.372  10.897  0.00  0.00    +0.109 C 
ATOM    137  NZ  LYS A  15      10.247  25.942   9.681  0.00  0.00    -0.131 NA
ENDBRANCH 135 136
ENDBRANCH 134 135
ENDBRANCH 133 134
ENDBRANCH  29 133
ENDBRANCH  26  29
ENDBRANCH  24  28
ENDBRANCH  21  24
ENDBRANCH  20  23
BRANCH  20 138
ATOM    138  CB  ASP A  17       5.815  33.958  17.107  0.00  0.00    +0.145 C 
BRANCH 138 139
ATOM    139  CG  ASP A  17       5.115  35.232  16.705  0.00  0.00    +0.367 C 
ATOM    140  OD2 ASP A  17       5.803  36.272  16.586  0.00  0.00    -0.246 OA
ATOM    141  OD1 ASP A  17       3.886  35.178  16.471  0.00  0.00    -0.246 OA
ENDBRANCH 138 139
ENDBRANCH  20 138
ENDBRANCH  17  20
ENDBRANCH  16  19
BRANCH  16 142
ATOM    142  CB  LEU A  18       7.394  29.149  17.534  0.00  0.00    +0.031 C 
BRANCH 142 143
ATOM    143  CG  LEU A  18       5.870  29.054  17.657  0.00  0.00    +0.002 C 
ATOM    144  CD2 LEU A  18       5.427  29.017  19.147  0.00  0.00    +0.000 C 
ATOM    145  CD1 LEU A  18       5.377  27.801  16.944  0.00  0.00    +0.000 C 
ENDBRANCH 142 143
ENDBRANCH  16 142
ENDBRANCH  13  16
ENDBRANCH  12  15
BRANCH  12 146
ATOM    146  CB  ILE A  19      12.011  29.663  15.495  0.00  0.00    +0.029 C 
ATOM    147  CG2 ILE A  19      13.542  29.591  15.300  0.00  0.00    +0.002 C 
BRANCH 146 148
ATOM    148  CG1 ILE A  19      11.300  28.328  15.129  0.00  0.00    +0.002 C 
ATOM    149  CD1 ILE A  19      11.320  27.990  13.685  0.00  0.00    +0.000 C 
ENDBRANCH 146 148
ENDBRANCH  12 146
ENDBRANCH   9  12
ENDBRANCH   8  11
BRANCH   8 150
ATOM    150  CB  ASN A  20      13.540  34.193  16.043  0.00  0.00    +0.120 C 
BRANCH 150 151
ATOM    151  CG  ASN A  20      14.995  33.860  15.895  0.00  0.00    +0.263 C 
ATOM    152  OD1 ASN A  20      15.841  34.200  16.741  0.00  0.00    -0.272 OA
ATOM    153  ND2 ASN A  20      15.306  33.183  14.809  0.00  0.00    -0.088 NA
ENDBRANCH 150 151
ENDBRANCH   8 150
ENDBRANCH   5   8
ENDBRANCH   4   7
BRANCH   4 154
ATOM    154  CB  ASN A  21       9.414  37.140  17.163  0.00  0.00    +0.120 C 
BRANCH 154 155
ATOM    155  CG  ASN A  21       9.450  37.107  15.664  0.00  0.00    +0.263 C 
ATOM    156  ND2 ASN A  21       8.261  36.917  15.078  0.00  0.00    -0.088 NA
ATOM    157  OD1 ASN A  21      10.488  37.328  15.026  0.00  0.00    -0.272 OA
ENDBRANCH 154 155
ENDBRANCH   4 154
ENDBRANCH   1   4
BRANCH   3 158
ATOM    158  CA  LEU A  22       9.296  35.851  21.327  0.00  0.00    +0.173 C 
BRANCH 158 159
ATOM    159  C   LEU A  22      10.502  35.716  22.255  0.00  0.00    +0.262 C 
ATOM    160  O   LEU A  22      10.561  36.443  23.240  0.00  0.00    -0.271 OA
ATOM    161  N   GLY A  23      11.482  34.893  21.865  0.00  0.00    -0.194 NA
BRANCH 161 162
ATOM    162  CA  GLY A  23      12.727  34.716  22.612  0.00  0.00    +0.201 C 
BRANCH 162 163
ATOM    163  C   GLY A  23      13.554  35.990  22.624  0.00  0.00    +0.264 C 
ATOM    164  O   GLY A  23      14.085  36.373  23.673  0.00  0.00    -0.271 OA
ATOM    165  N   THR A  24      13.620  36.691  21.458  0.00  0.00    -0.194 NA
BRANCH 165 166
ATOM    166  CA  THR A  24      14.351  37.956  21.294  0.00  0.00    +0.203 C 
BRANCH 166 167
ATOM    167  CB  THR A  24      14.356  38.389  19.810  0.00  0.00    +0.181 C 
ATOM    168  CG2 THR A  24      14.959  39.783  19.593  0.00  0.00    +0.038 C 
ATOM    169  OG1 THR A  24      15.125  37.437  19.089  0.00  0.00    -0.221 OA
ENDBRANCH 166 167
BRANCH 166 170
ATOM    170  C   THR A  24      13.803  39.029  22.224  0.00  0.00    +0.264 C 
ATOM    171  O   THR A  24      14.574  39.674  22.934  0.00  0.00    -0.271 OA
ATOM    172  N   ILE A  25      12.482  39.198  22.224  0.00  0.00    -0.196 NA
BRANCH 172 173
ATOM    173  CA  ILE A  25      11.774  40.171  23.044  0.00  0.00    +0.173 C 
BRANCH 173 174
ATOM    174  C   ILE A  25      11.958  39.877  24.542  0.00  0.00    +0.262 C 
ATOM    175  O   ILE A  25      12.205  40.808  25.310  0.00  0.00    -0.271 OA
ATOM    176  N   ALA A  26      11.893  38.592  24.935  0.00  0.00    -0.196 NA
BRANCH 176 177
ATOM    177  CA  ALA A  26      12.009  38.156  26.331  0.00  0.00    +0.173 C 
ATOM    178  CB  ALA A  26      11.544  36.713  26.467  0.00  0.00    +0.033 C 
BRANCH 177 179
ATOM    179  C   ALA A  26      13.407  38.334  26.954  0.00  0.00    +0.262 C 
ATOM    180  O   ALA A  26      13.506  38.348  28.185  0.00  0.00    -0.271 OA
ATOM    181  N   LYS A  27      14.471  38.491  26.121  0.00  0.00    -0.196 NA
BRANCH 181 182
ATOM    182  CA  LYS A  27      15.873  38.625  26.571  0.00  0.00    +0.173 C 
BRANCH 182 183
ATOM    183  C   LYS A  27      16.100  39.667  27.686  0.00  0.00    +0.262 C 
ATOM    184  O   LYS A  27      16.616  39.291  28.743  0.00  0.00    -0.271 OA
ATOM    185  N   SER A  28      15.725  40.952  27.465  0.00  0.00    -0.194 NA
BRANCH 185 186
ATOM    186  CA  SER A  28      15.931  42.007  28.466  0.00  0.00    +0.205 C 
BRANCH 186 187
ATOM    187  C   SER A  28      15.126  41.784  29.753  0.00  0.00    +0.264 C 
ATOM    188  O   SER A  28      15.670  41.968  30.840  0.00  0.00    -0.271 OA
ATOM    189  N   GLY A  29      13.865  41.360  29.612  0.00  0.00    -0.194 NA
BRANCH 189 190
ATOM    190  CA  GLY A  29      12.980  41.056  30.733  0.00  0.00    +0.201 C 
BRANCH 190 191
ATOM    191  C   GLY A  29      13.497  39.887  31.563  0.00  0.00    +0.264 C 
ATOM    192  O   GLY A  29      13.463  39.948  32.792  0.00  0.00    -0.271 OA
ATOM    193  N   THR A  30      14.007  38.828  30.902  0.00  0.00    -0.194 NA
BRANCH 193 194
ATOM    194  CA  THR A  30      14.574  37.653  31.582  0.00  0.00    +0.203 C 
BRANCH 194 195
ATOM    195  CB  THR A  30      14.942  36.558  30.569  0.00  0.00    +0.181 C 
ATOM    196  CG2 THR A  30      15.601  35.372  31.225  0.00  0.00    +0.038 C 
ATOM    197  OG1 THR A  30      13.754  36.112  29.922  0.00  0.00    -0.221 OA
ENDBRANCH 194 195
BRANCH 194 198
ATOM    198  C   THR A  30      15.800  38.066  32.420  0.00  0.00    +0.264 C 
ATOM    199  O   THR A  30      15.872  37.756  33.616  0.00  0.00    -0.271 OA
ATOM    200  N   LYS A  31      16.754  38.762  31.779  0.00  0.00    -0.196 NA
BRANCH 200 201
ATOM    201  CA  LYS A  31      17.966  39.245  32.444  0.00  0.00    +0.173 C 
BRANCH 201 202
ATOM    202  C   LYS A  31      17.568  40.138  33.648  0.00  0.00    +0.262 C 
ATOM    203  O   LYS A  31      17.999  39.868  34.773  0.00  0.00    -0.271 OA
ATOM    204  N   ALA A  32      16.668  41.121  33.425  0.00  0.00    -0.196 NA
BRANCH 204 205
ATOM    205  CA  ALA A  32      16.180  42.020  34.482  0.00  0.00    +0.173 C 
ATOM    206  CB  ALA A  32      15.228  43.064  33.913  0.00  0.00    +0.033 C 
BRANCH 205 207
ATOM    207  C   ALA A  32      15.512  41.246  35.616  0.00  0.00    +0.262 C 
ATOM    208  O   ALA A  32      15.794  41.515  36.789  0.00  0.00    -0.271 OA
ATOM    209  N   PHE A  33      14.662  40.248  35.271  0.00  0.00    -0.196 NA
BRANCH 209 210
ATOM    210  CA  PHE A  33      13.983  39.432  36.277  0.00  0.00    +0.177 C 
BRANCH 210 211
ATOM    211  C   PHE A  33      14.991  38.697  37.154  0.00  0.00    +0.262 C 
ATOM    212  O   PHE A  33      14.845  38.709  38.373  0.00  0.00    -0.271 OA
ATOM    213  N   MET A  34      16.021  38.088  36.544  0.00  0.00    -0.196 NA
BRANCH 213 214
ATOM    214  CA  MET A  34      17.032  37.336  37.287  0.00  0.00    +0.174 C 
BRANCH 214 215
ATOM    215  C   MET A  34      17.843  38.233  38.222  0.00  0.00    +0.262 C 
ATOM    216  O   MET A  34      18.097  37.840  39.363  0.00  0.00    -0.271 OA
ATOM    217  N   GLU A  35      18.149  39.464  37.769  0.00  0.00    -0.196 NA
BRANCH 217 218
ATOM    218  CA  GLU A  35      18.834  40.497  38.559  0.00  0.00    +0.173 C 
BRANCH 218 219
ATOM    219  C   GLU A  35      17.954  40.876  39.759  0.00  0.00    +0.262 C 
ATOM    220  O   GLU A  35      18.463  40.953  40.879  0.00  0.00    -0.271 OA
ATOM    221  N   ALA A  36      16.627  41.029  39.534  0.00  0.00    -0.196 NA
BRANCH 221 222
ATOM    222  CA  ALA A  36      15.651  41.331  40.585  0.00  0.00    +0.173 C 
ATOM    223  CB  ALA A  36      14.276  41.599  39.988  0.00  0.00    +0.033 C 
BRANCH 222 224
ATOM    224  C   ALA A  36      15.581  40.189  41.613  0.00  0.00    +0.262 C 
ATOM    225  O   ALA A  36      15.570  40.467  42.817  0.00  0.00    -0.271 OA
ATOM    226  N   LEU A  37      15.578  38.937  41.169  0.00  0.00    -0.196 NA
BRANCH 226 227
ATOM    227  CA  LEU A  37      15.525  37.803  42.087  0.00  0.00    +0.173 C 
BRANCH 227 228
ATOM    228  C   LEU A  37      16.769  37.809  42.981  0.00  0.00    +0.262 C 
ATOM    229  O   LEU A  37      16.705  37.539  44.153  0.00  0.00    -0.271 OA
ATOM    230  N   GLN A  38      17.887  38.143  42.387  0.00  0.00    -0.196 NA
BRANCH 230 231
ATOM    231  CA  GLN A  38      19.146  38.222  43.098  0.00  0.00    +0.173 C 
BRANCH 231 232
ATOM    232  C   GLN A  38      19.045  39.292  44.173  0.00  0.00    +0.262 C 
ATOM    233  O   GLN A  38      19.658  39.188  45.223  0.00  0.00    -0.271 OA
ATOM    234  N   ALA A  39      18.288  40.332  43.878  0.00  0.00    -0.196 NA
BRANCH 234 235
ATOM    235  CA  ALA A  39      18.095  41.448  44.783  0.00  0.00    +0.173 C 
ATOM    236  CB  ALA A  39      17.857  42.731  44.024  0.00  0.00    +0.033 C 
BRANCH 235 237
ATOM    237  C   ALA A  39      16.952  41.189  45.754  0.00  0.00    +0.262 C 
ATOM    238  O   ALA A  39      16.490  42.104  46.406  0.00  0.00    -0.271 OA
ATOM    239  N   GLY A  40      16.514  39.939  45.847  0.00  0.00    -0.194 NA
BRANCH 239 240
ATOM    240  CA  GLY A  40      15.426  39.544  46.729  0.00  0.00    +0.201 C 
BRANCH 240 241
ATOM    241  C   GLY A  40      13.966  39.564  46.286  0.00  0.00    +0.264 C 
ATOM    242  O   GLY A  40      13.096  39.384  47.110  0.00  0.00    -0.271 OA
ATOM    243  N   ALA A  41      13.695  39.790  45.008  0.00  0.00    -0.196 NA
BRANCH 243 244
ATOM    244  CA  ALA A  41      12.333  39.821  44.514  0.00  0.00    +0.173 C 
ATOM    245  CB  ALA A  41      12.289  40.347  43.092  0.00  0.00    +0.033 C 
BRANCH 244 246
ATOM    246  C   ALA A  41      11.720  38.444  44.592  0.00  0.00    +0.262 C 
ATOM    247  O   ALA A  41      12.402  37.468  44.696  0.00  0.00    -0.271 OA
ATOM    248  N   ASP A  42      10.407  38.390  44.577  0.00  0.00    -0.196 NA
BRANCH 248 249
ATOM    249  CA  ASP A  42       9.702  37.119  44.634  0.00  0.00    +0.184 C 
BRANCH 249 250
ATOM    250  C   ASP A  42       9.429  36.612  43.203  0.00  0.00    +0.262 C 
ATOM    251  N   ILE A  43       9.427  35.277  43.009  0.00  0.00    -0.196 NA
ATOM    252  O   ASP A  42       9.215  37.423  42.302  0.00  0.00    -0.271 OA
BRANCH 251 253
ATOM    253  CA  ILE A  43       9.124  34.632  41.715  0.00  0.00    +0.173 C 
BRANCH 253 254
ATOM    254  C   ILE A  43       7.763  35.124  41.189  0.00  0.00    +0.261 C 
ATOM    255  N   GLY A  44       6.806  35.456  42.095  0.00  0.00    -0.201 NA
ATOM    256  O   ILE A  43       7.606  35.283  39.978  0.00  0.00    -0.271 OA
BRANCH 255 257
ATOM    257  CA  GLY A  44       5.477  35.948  41.698  0.00  0.00    +0.151 C 
BRANCH 257 258
ATOM    258  C   GLY A  44       4.564  36.112  42.912  0.00  0.00    +0.205 C 
ATOM    259  O   GLY A  44       4.981  37.193  43.732  0.00  0.00    -0.218 OA
ENDBRANCH 257 258
ENDBRANCH 255 257
ENDBRANCH 253 254
BRANCH 253 260
ATOM    260  CB  ILE A  43       9.243  33.069  41.791  0.00  0.00    +0.029 C 
ATOM    261  CG2 ILE A  43       8.464  32.360  40.652  0.00  0.00    +0.002 C 
BRANCH 260 262
ATOM    262  CG1 ILE A  43      10.736  32.640  41.780  0.00  0.00    +0.002 C 
ATOM    263  CD1 ILE A  43      11.021  31.130  42.129  0.00  0.00    +0.000 C 
ENDBRANCH 260 262
ENDBRANCH 253 260
ENDBRANCH 251 253
ENDBRANCH 249 250
BRANCH 249 264
ATOM    264  CB  ASP A  42       8.389  37.272  45.414  0.00  0.00    +0.145 C 
BRANCH 264 265
ATOM    265  CG  ASP A  42       7.751  35.949  45.769  0.00  0.00    +0.367 C 
ATOM    266  OD2 ASP A  42       8.253  35.274  46.702  0.00  0.00    -0.246 OA
ATOM    267  OD1 ASP A  42       6.771  35.573  45.106  0.00  0.00    -0.246 OA
ENDBRANCH 264 265
ENDBRANCH 249 264
ENDBRANCH 248 249
ENDBRANCH 244 246
ENDBRANCH 243 244
ENDBRANCH 240 241
ENDBRANCH 239 240
ENDBRANCH 235 237
ENDBRANCH 234 235
ENDBRANCH 231 232
BRANCH 231 268
ATOM    268  CB  GLN A  38      20.274  38.538  42.133  0.00  0.00    +0.041 C 
BRANCH 268 269
ATOM    269  CG  GLN A  38      20.972  37.315  41.604  0.00  0.00    +0.091 C 
BRANCH 269 270
ATOM    270  CD  GLN A  38      21.839  36.679  42.665  0.00  0.00    +0.261 C 
ATOM    271  NE2 GLN A  38      22.523  37.511  43.431  0.00  0.00    -0.088 NA
ATOM    272  OE1 GLN A  38      21.887  35.457  42.807  0.00  0.00    -0.272 OA
ENDBRANCH 269 270
ENDBRANCH 268 269
ENDBRANCH 231 268
ENDBRANCH 230 231
ENDBRANCH 227 228
BRANCH 227 273
ATOM    273  CB  LEU A  37      15.424  36.491  41.333  0.00  0.00    +0.031 C 
BRANCH 273 274
ATOM    274  CG  LEU A  37      14.120  36.241  40.586  0.00  0.00    +0.002 C 
ATOM    275  CD2 LEU A  37      12.996  36.111  41.579  0.00  0.00    +0.000 C 
ATOM    276  CD1 LEU A  37      14.197  35.015  39.707  0.00  0.00    +0.000 C 
ENDBRANCH 273 274
ENDBRANCH 227 273
ENDBRANCH 226 227
ENDBRANCH 222 224
ENDBRANCH 221 222
ENDBRANCH 218 219
BRANCH 218 277
ATOM    277  CB  GLU A  35      19.147  41.731  37.692  0.00  0.00    +0.043 C 
BRANCH 277 278
ATOM    278  CG  GLU A  35      20.371  41.528  36.812  0.00  0.00    +0.116 C 
BRANCH 278 279
ATOM    279  CD  GLU A  35      20.769  42.680  35.908  0.00  0.00    +0.365 C 
ATOM    280  OE2 GLU A  35      20.477  43.849  36.252  0.00  0.00    -0.246 OA
ATOM    281  OE1 GLU A  35      21.416  42.412  34.870  0.00  0.00    -0.246 OA
ENDBRANCH 278 279
ENDBRANCH 277 278
ENDBRANCH 218 277
ENDBRANCH 217 218
ENDBRANCH 214 215
BRANCH 214 282
ATOM    282  CB  MET A  34      17.902  36.507  36.351  0.00  0.00    +0.043 C 
BRANCH 282 283
ATOM    283  CG  MET A  34      17.121  35.334  35.771  0.00  0.00    +0.060 C 
BRANCH 283 284
ATOM    284  SD  MET A  34      18.154  34.083  35.009  0.00  0.00    -0.139 S 
ATOM    285  CE  MET A  34      18.808  35.002  33.561  0.00  0.00    +0.069 C 
ENDBRANCH 283 284
ENDBRANCH 282 283
ENDBRANCH 214 282
ENDBRANCH 213 214
ENDBRANCH 210 211
BRANCH 210 286
ATOM    286  CB  PHE A  33      13.001  38.436  35.642  0.00  0.00    +0.057 C 
BRANCH 286 287
ATOM    287  CG  PHE A  33      12.228  37.586  36.629  0.00  0.00    -0.020 A 
ATOM    288  CD2 PHE A  33      11.617  38.159  37.742  0.00  0.00    -0.004 A 
ATOM    289  CE2 PHE A  33      10.904  37.374  38.655  0.00  0.00    -0.000 A 
ATOM    290  CZ  PHE A  33      10.773  36.015  38.442  0.00  0.00    -0.000 A 
ATOM    291  CE1 PHE A  33      11.352  35.433  37.332  0.00  0.00    -0.000 A 
ATOM    292  CD1 PHE A  33      12.087  36.217  36.431  0.00  0.00    -0.004 A 
ENDBRANCH 286 287
ENDBRANCH 210 286
ENDBRANCH 209 210
ENDBRANCH 205 207
ENDBRANCH 204 205
ENDBRANCH 201 202
BRANCH 201 293
ATOM    293  CB  LYS A  31      18.865  39.976  31.419  0.00  0.00    +0.031 C 
BRANCH 293 294
ATOM    294  CG  LYS A  31      20.178  40.516  31.987  0.00  0.00    +0.004 C 
BRANCH 294 295
ATOM    295  CD  LYS A  31      21.040  41.150  30.896  0.00  0.00    +0.021 C 
BRANCH 295 296
ATOM    296  CE  LYS A  31      21.958  42.237  31.415  0.00  0.00    +0.109 C 
ATOM    297  NZ  LYS A  31      23.148  41.688  32.121  0.00  0.00    -0.131 NA
ENDBRANCH 295 296
ENDBRANCH 294 295
ENDBRANCH 293 294
ENDBRANCH 201 293
ENDBRANCH 200 201
ENDBRANCH 194 198
ENDBRANCH 193 194
ENDBRANCH 190 191
ENDBRANCH 189 190
ENDBRANCH 186 187
BRANCH 186 298
ATOM    298  CB  SER A  28      15.681  43.397  27.882  0.00  0.00    +0.213 C 
ATOM    299  OG  SER A  28      14.370  43.511  27.359  0.00  0.00    -0.218 OA
ENDBRANCH 186 298
ENDBRANCH 185 186
ENDBRANCH 182 183
BRANCH 182 300
ATOM    300  CB  LYS A  27      16.820  38.890  25.382  0.00  0.00    +0.031 C 
BRANCH 300 301
ATOM    301  CG  LYS A  27      18.291  38.670  25.725  0.00  0.00    +0.004 C 
BRANCH 301 302
ATOM    302  CD  LYS A  27      19.216  38.815  24.524  0.00  0.00    +0.021 C 
BRANCH 302 303
ATOM    303  CE  LYS A  27      20.662  38.795  24.962  0.00  0.00    +0.109 C 
ATOM    304  NZ  LYS A  27      21.597  38.861  23.808  0.00  0.00    -0.131 NA
ENDBRANCH 302 303
ENDBRANCH 301 302
ENDBRANCH 300 301
ENDBRANCH 182 300
ENDBRANCH 181 182
ENDBRANCH 177 179
ENDBRANCH 176 177
ENDBRANCH 173 174
BRANCH 173 305
ATOM    305  CB  ILE A  25      10.285  40.268  22.601  0.00  0.00    +0.029 C 
ATOM    306  CG2 ILE A  25       9.408  40.984  23.620  0.00  0.00    +0.002 C 
BRANCH 305 307
ATOM    307  CG1 ILE A  25      10.129  40.880  21.175  0.00  0.00    +0.002 C 
ATOM    308  CD1 ILE A  25      10.886  42.184  20.884  0.00  0.00    +0.000 C 
ENDBRANCH 305 307
ENDBRANCH 173 305
ENDBRANCH 172 173
ENDBRANCH 166 170
ENDBRANCH 165 166
ENDBRANCH 162 163
ENDBRANCH 161 162
ENDBRANCH 158 159
BRANCH 158 309
ATOM    309  CB  LEU A  22       8.201  34.828  21.616  0.00  0.00    +0.031 C 
BRANCH 309 310
ATOM    310  CG  LEU A  22       6.854  35.085  20.883  0.00  0.00    +0.002 C 
ATOM    311  CD2 LEU A  22       5.787  34.101  21.357  0.00  0.00    +0.000 C 
ATOM    312  CD1 LEU A  22       6.346  36.532  21.086  0.00  0.00    +0.000 C 
ENDBRANCH 309 310
ENDBRANCH 158 309
ENDBRANCH   3 158
TORSDOF 155
REMARK  Name = /Users/mlugowska/PhD/ML_residence_time_prediction/protein_files/5NYH_protein.pdb
REMARK  779 active torsions:
REMARK  status: ('A' for Active; 'I' for Inactive)
REMARK    1  A    between atoms: _2  and  _3
REMARK    2  A    between atoms: _2  and  _5
REMARK    3  A    between atoms: _5  and  _6
REMARK    4  A    between atoms: _6  and  _7
REMARK    5  A    between atoms: _10  and  _11
REMARK    6  A    between atoms: _11  and  _12
REMARK    7  A    between atoms: _11  and  _14
REMARK    8  A    between atoms: _17  and  _18
REMARK    9  A    between atoms: _18  and  _19
REMARK   10  A    between atoms: _18  and  _21
REMARK   11  A    between atoms: _21  and  _22
REMARK   12  A    between atoms: _22  and  _23
REMARK   13  A    between atoms: _26  and  _27
REMARK   14  A    between atoms: _27  and  _28
REMARK   15  A    between atoms: _27  and  _30
REMARK   16  A    between atoms: _33  and  _34
REMARK   17  A    between atoms: _34  and  _35
REMARK   18  A    between atoms: _34  and  _37
REMARK   19  A    between atoms: _37  and  _38
REMARK   20  A    between atoms: _44  and  _45
REMARK   21  A    between atoms: _45  and  _46
REMARK   22  A    between atoms: _49  and  _50
REMARK   23  A    between atoms: _50  and  _51
REMARK   24  A    between atoms: _50  and  _53
REMARK   25  A    between atoms: _53  and  _54
REMARK   26  A    between atoms: _60  and  _61
REMARK   27  A    between atoms: _61  and  _62
REMARK   28  A    between atoms: _61  and  _64
REMARK   29  A    between atoms: _64  and  _65
REMARK   30  A    between atoms: _65  and  _66
REMARK   31  A    between atoms: _69  and  _70
REMARK   32  A    between atoms: _70  and  _71
REMARK   33  A    between atoms: _74  and  _75
REMARK   34  A    between atoms: _75  and  _76
REMARK   35  A    between atoms: _75  and  _78
REMARK   36  A    between atoms: _78  and  _79
REMARK   37  A    between atoms: _79  and  _80
REMARK   38  A    between atoms: _83  and  _84
REMARK   39  A    between atoms: _84  and  _85
REMARK   40  A    between atoms: _84  and  _87
REMARK   41  A    between atoms: _87  and  _88
REMARK   42  A    between atoms: _91  and  _92
REMARK   43  A    between atoms: _92  and  _93
REMARK   44  A    between atoms: _96  and  _97
REMARK   45  A    between atoms: _97  and  _98
REMARK   46  A    between atoms: _97  and  _100
REMARK   47  A    between atoms: _100  and  _101
REMARK   48  A    between atoms: _101  and  _102
REMARK   49  A    between atoms: _105  and  _106
REMARK   50  A    between atoms: _106  and  _107
REMARK   51  A    between atoms: _106  and  _109
REMARK   52  A    between atoms: _109  and  _110
REMARK   53  A    between atoms: _113  and  _114
REMARK   54  A    between atoms: _114  and  _115
REMARK   55  A    between atoms: _114  and  _117
REMARK   56  A    between atoms: _117  and  _118
REMARK   57  A    between atoms: _118  and  _119
REMARK   58  A    between atoms: _121  and  _122
REMARK   59  A    between atoms: _122  and  _123
REMARK   60  A    between atoms: _122  and  _125
REMARK   61  A    between atoms: _127  and  _128
REMARK   62  A    between atoms: _128  and  _129
REMARK   63  A    between atoms: _128  and  _131
REMARK   64  A    between atoms: _131  and  _132
REMARK   65  A    between atoms: _135  and  _136
REMARK   66  A    between atoms: _136  and  _137
REMARK   67  A    between atoms: _136  and  _139
REMARK   68  A    between atoms: _139  and  _140
REMARK   69  A    between atoms: _143  and  _144
REMARK   70  A    between atoms: _144  and  _145
REMARK   71  A    between atoms: _144  and  _147
REMARK   72  A    between atoms: _147  and  _148
REMARK   73  A    between atoms: _151  and  _152
REMARK   74  A    between atoms: _152  and  _153
REMARK   75  A    between atoms: _152  and  _155
REMARK   76  A    between atoms: _155  and  _156
REMARK   77  A    between atoms: _159  and  _160
REMARK   78  A    between atoms: _160  and  _161
REMARK   79  A    between atoms: _160  and  _163
REMARK   80  A    between atoms: _166  and  _167
REMARK   81  A    between atoms: _167  and  _168
REMARK   82  A    between atoms: _167  and  _170
REMARK   83  A    between atoms: _170  and  _171
REMARK   84  A    between atoms: _177  and  _178
REMARK   85  A    between atoms: _178  and  _179
REMARK   86  A    between atoms: _178  and  _181
REMARK   87  A    between atoms: _181  and  _182
REMARK   88  A    between atoms: _189  and  _190
REMARK   89  A    between atoms: _190  and  _191
REMARK   90  A    between atoms: _190  and  _193
REMARK   91  A    between atoms: _195  and  _196
REMARK   92  A    between atoms: _196  and  _197
REMARK   93  A    between atoms: _196  and  _199
REMARK   94  A    between atoms: _199  and  _200
REMARK   95  A    between atoms: _203  and  _204
REMARK   96  A    between atoms: _204  and  _205
REMARK   97  A    between atoms: _204  and  _207
REMARK   98  A    between atoms: _207  and  _208
REMARK   99  A    between atoms: _208  and  _209
REMARK  100  A    between atoms: _209  and  _210
REMARK  101  A    between atoms: _212  and  _213
REMARK  102  A    between atoms: _213  and  _214
REMARK  103  A    between atoms: _213  and  _216
REMARK  104  A    between atoms: _216  and  _217
REMARK  105  A    between atoms: _217  and  _218
REMARK  106  A    between atoms: _221  and  _222
REMARK  107  A    between atoms: _222  and  _223
REMARK  108  A    between atoms: _222  and  _225
REMARK  109  A    between atoms: _225  and  _226
REMARK  110  A    between atoms: _229  and  _230
REMARK  111  A    between atoms: _230  and  _231
REMARK  112  A    between atoms: _230  and  _233
REMARK  113  A    between atoms: _233  and  _234
REMARK  114  A    between atoms: _240  and  _241
REMARK  115  A    between atoms: _241  and  _242
REMARK  116  A    between atoms: _241  and  _244
REMARK  117  A    between atoms: _244  and  _245
REMARK  118  A    between atoms: _248  and  _249
REMARK  119  A    between atoms: _249  and  _250
REMARK  120  A    between atoms: _249  and  _252
REMARK  121  A    between atoms: _252  and  _253
REMARK  122  A    between atoms: _253  and  _254
REMARK  123  A    between atoms: _254  and  _255
REMARK  124  A    between atoms: _259  and  _260
REMARK  125  A    between atoms: _260  and  _261
REMARK  126  A    between atoms: _260  and  _263
REMARK  127  A    between atoms: _263  and  _264
REMARK  128  A    between atoms: _264  and  _265
REMARK  129  A    between atoms: _268  and  _269
REMARK  130  A    between atoms: _269  and  _270
REMARK  131  A    between atoms: _269  and  _272
REMARK  132  A    between atoms: _272  and  _273
REMARK  133  A    between atoms: _276  and  _277
REMARK  134  A    between atoms: _277  and  _278
REMARK  135  A    between atoms: _277  and  _280
REMARK  136  A    between atoms: _280  and  _281
REMARK  137  A    between atoms: _284  and  _285
REMARK  138  A    between atoms: _285  and  _286
REMARK  139  A    between atoms: _285  and  _288
REMARK  140  A    between atoms: _290  and  _291
REMARK  141  A    between atoms: _291  and  _292
REMARK  142  A    between atoms: _291  and  _294
REMARK  143  A    between atoms: _294  and  _295
REMARK  144  A    between atoms: _298  and  _299
REMARK  145  A    between atoms: _299  and  _300
REMARK  146  A    between atoms: _299  and  _302
REMARK  147  A    between atoms: _304  and  _305
REMARK  148  A    between atoms: _305  and  _306
REMARK  149  A    between atoms: _305  and  _308
REMARK  150  A    between atoms: _310  and  _311
REMARK  151  A    between atoms: _311  and  _312
REMARK  152  A    between atoms: _311  and  _314
REMARK  153  A    between atoms: _314  and  _315
REMARK  154  A    between atoms: _318  and  _319
REMARK  155  A    between atoms: _319  and  _320
REMARK  156  A    between atoms: _323  and  _324
REMARK  157  A    between atoms: _324  and  _325
REMARK  158  A    between atoms: _324  and  _327
REMARK  159  A    between atoms: _327  and  _328
REMARK  160  A    between atoms: _331  and  _332
REMARK  161  A    between atoms: _332  and  _333
REMARK  162  A    between atoms: _332  and  _335
REMARK  163  A    between atoms: _335  and  _336
REMARK  164  A    between atoms: _339  and  _340
REMARK  165  A    between atoms: _340  and  _341
REMARK  166  A    between atoms: _340  and  _343
REMARK  167  A    between atoms: _343  and  _344
REMARK  168  A    between atoms: _344  and  _345
REMARK  169  A    between atoms: _345  and  _346
REMARK  170  A    between atoms: _348  and  _349
REMARK  171  A    between atoms: _349  and  _350
REMARK  172  A    between atoms: _349  and  _352
REMARK  173  A    between atoms: _352  and  _353
REMARK  174  A    between atoms: _356  and  _357
REMARK  175  A    between atoms: _357  and  _358
REMARK  176  A    between atoms: _357  and  _360
REMARK  177  A    between atoms: _360  and  _361
REMARK  178  A    between atoms: _361  and  _362
REMARK  179  A    between atoms: _362  and  _363
REMARK  180  A    between atoms: _367  and  _368
REMARK  181  A    between atoms: _368  and  _369
REMARK  182  A    between atoms: _368  and  _371
REMARK  183  A    between atoms: _371  and  _372
REMARK  184  A    between atoms: _379  and  _380
REMARK  185  A    between atoms: _380  and  _381
REMARK  186  A    between atoms: _380  and  _383
REMARK  187  A    between atoms: _383  and  _384
REMARK  188  A    between atoms: _384  and  _385
REMARK  189  A    between atoms: _388  and  _389
REMARK  190  A    between atoms: _389  and  _390
REMARK  191  A    between atoms: _389  and  _392
REMARK  192  A    between atoms: _394  and  _395
REMARK  193  A    between atoms: _395  and  _396
REMARK  194  A    between atoms: _395  and  _398
REMARK  195  A    between atoms: _398  and  _399
REMARK  196  A    between atoms: _402  and  _403
REMARK  197  A    between atoms: _403  and  _404
REMARK  198  A    between atoms: _403  and  _406
REMARK  199  A    between atoms: _409  and  _410
REMARK  200  A    between atoms: _410  and  _411
REMARK  201  A    between atoms: _410  and  _413
REMARK  202  A    between atoms: _413  and  _414
REMARK  203  A    between atoms: _418  and  _419
REMARK  204  A    between atoms: _424  and  _425
REMARK  205  A    between atoms: _425  and  _426
REMARK  206  A    between atoms: _425  and  _428
REMARK  207  A    between atoms: _430  and  _431
REMARK  208  A    between atoms: _431  and  _432
REMARK  209  A    between atoms: _431  and  _434
REMARK  210  A    between atoms: _434  and  _435
REMARK  211  A    between atoms: _435  and  _436
REMARK  212  A    between atoms: _436  and  _437
REMARK  213  A    between atoms: _439  and  _440
REMARK  214  A    between atoms: _440  and  _441
REMARK  215  A    between atoms: _440  and  _443
REMARK  216  A    between atoms: _443  and  _444
REMARK  217  A    between atoms: _447  and  _448
REMARK  218  A    between atoms: _448  and  _449
REMARK  219  A    between atoms: _448  and  _451
REMARK  220  A    between atoms: _451  and  _452
REMARK  221  A    between atoms: _455  and  _456
REMARK  222  A    between atoms: _456  and  _457
REMARK  223  A    between atoms: _456  and  _459
REMARK  224  A    between atoms: _461  and  _462
REMARK  225  A    between atoms: _462  and  _463
REMARK  226  A    between atoms: _465  and  _466
REMARK  227  A    between atoms: _466  and  _467
REMARK  228  A    between atoms: _466  and  _469
REMARK  229  A    between atoms: _469  and  _470
REMARK  230  A    between atoms: _470  and  _471
REMARK  231  A    between atoms: _471  and  _472
REMARK  232  A    between atoms: _474  and  _475
REMARK  233  A    between atoms: _475  and  _476
REMARK  234  A    between atoms: _475  and  _478
REMARK  235  A    between atoms: _478  and  _479
REMARK  236  A    between atoms: _479  and  _480
REMARK  237  A    between atoms: _483  and  _484
REMARK  238  A    between atoms: _484  and  _485
REMARK  239  A    between atoms: _484  and  _487
REMARK  240  A    between atoms: _487  and  _488
REMARK  241  A    between atoms: _491  and  _492
REMARK  242  A    between atoms: _492  and  _493
REMARK  243  A    between atoms: _492  and  _495
REMARK  244  A    between atoms: _495  and  _496
REMARK  245  A    between atoms: _501  and  _502
REMARK  246  A    between atoms: _502  and  _503
REMARK  247  A    between atoms: _502  and  _505
REMARK  248  A    between atoms: _505  and  _506
REMARK  249  A    between atoms: _509  and  _510
REMARK  250  A    between atoms: _510  and  _511
REMARK  251  A    between atoms: _510  and  _513
REMARK  252  A    between atoms: _513  and  _514
REMARK  253  A    between atoms: _517  and  _518
REMARK  254  A    between atoms: _518  and  _519
REMARK  255  A    between atoms: _518  and  _521
REMARK  256  A    between atoms: _521  and  _522
REMARK  257  A    between atoms: _525  and  _526
REMARK  258  A    between atoms: _526  and  _527
REMARK  259  A    between atoms: _526  and  _529
REMARK  260  A    between atoms: _529  and  _530
REMARK  261  A    between atoms: _534  and  _535
REMARK  262  A    between atoms: _540  and  _541
REMARK  263  A    between atoms: _541  and  _542
REMARK  264  A    between atoms: _541  and  _544
REMARK  265  A    between atoms: _544  and  _545
REMARK  266  A    between atoms: _548  and  _549
REMARK  267  A    between atoms: _549  and  _552
REMARK  268  A    between atoms: _552  and  _553
REMARK  269  A    between atoms: _553  and  _554
REMARK  270  A    between atoms: _554  and  _555
REMARK  271  A    between atoms: _568  and  _569
REMARK  272  A    between atoms: _576  and  _577
REMARK  273  A    between atoms: _576  and  _579
REMARK  274  A    between atoms: _579  and  _580
REMARK  275  A    between atoms: _583  and  _584
REMARK  276  A    between atoms: _584  and  _585
REMARK  277  A    between atoms: _584  and  _587
REMARK  278  A    between atoms: _587  and  _588
REMARK  279  A    between atoms: _588  and  _589
REMARK  280  A    between atoms: _589  and  _590
REMARK  281  A    between atoms: _594  and  _595
REMARK  282  A    between atoms: _595  and  _596
REMARK  283  A    between atoms: _595  and  _598
REMARK  284  A    between atoms: _601  and  _602
REMARK  285  A    between atoms: _602  and  _603
REMARK  286  A    between atoms: _602  and  _605
REMARK  287  A    between atoms: _605  and  _606
REMARK  288  A    between atoms: _609  and  _610
REMARK  289  A    between atoms: _610  and  _611
REMARK  290  A    between atoms: _610  and  _613
REMARK  291  A    between atoms: _616  and  _617
REMARK  292  A    between atoms: _617  and  _618
REMARK  293  A    between atoms: _617  and  _620
REMARK  294  A    between atoms: _620  and  _621
REMARK  295  A    between atoms: _624  and  _625
REMARK  296  A    between atoms: _625  and  _626
REMARK  297  A    between atoms: _625  and  _628
REMARK  298  A    between atoms: _631  and  _632
REMARK  299  A    between atoms: _632  and  _633
REMARK  300  A    between atoms: _632  and  _635
REMARK  301  A    between atoms: _635  and  _636
REMARK  302  A    between atoms: _639  and  _640
REMARK  303  A    between atoms: _640  and  _641
REMARK  304  A    between atoms: _640  and  _643
REMARK  305  A    between atoms: _646  and  _647
REMARK  306  A    between atoms: _647  and  _648
REMARK  307  A    between atoms: _650  and  _651
REMARK  308  A    between atoms: _651  and  _652
REMARK  309  A    between atoms: _651  and  _654
REMARK  310  A    between atoms: _654  and  _655
REMARK  311  A    between atoms: _658  and  _659
REMARK  312  A    between atoms: _659  and  _660
REMARK  313  A    between atoms: _662  and  _663
REMARK  314  A    between atoms: _663  and  _664
REMARK  315  A    between atoms: _663  and  _666
REMARK  316  A    between atoms: _666  and  _667
REMARK  317  A    between atoms: _667  and  _668
REMARK  318  A    between atoms: _670  and  _671
REMARK  319  A    between atoms: _671  and  _672
REMARK  320  A    between atoms: _671  and  _674
REMARK  321  A    between atoms: _677  and  _678
REMARK  322  A    between atoms: _678  and  _679
REMARK  323  A    between atoms: _678  and  _681
REMARK  324  A    between atoms: _681  and  _682
REMARK  325  A    between atoms: _682  and  _683
REMARK  326  A    between atoms: _683  and  _684
REMARK  327  A    between atoms: _686  and  _687
REMARK  328  A    between atoms: _687  and  _688
REMARK  329  A    between atoms: _691  and  _692
REMARK  330  A    between atoms: _692  and  _693
REMARK  331  A    between atoms: _692  and  _695
REMARK  332  A    between atoms: _695  and  _696
REMARK  333  A    between atoms: _699  and  _700
REMARK  334  A    between atoms: _700  and  _701
REMARK  335  A    between atoms: _700  and  _703
REMARK  336  A    between atoms: _703  and  _704
REMARK  337  A    between atoms: _707  and  _708
REMARK  338  A    between atoms: _708  and  _709
REMARK  339  A    between atoms: _708  and  _711
REMARK  340  A    between atoms: _711  and  _712
REMARK  341  A    between atoms: _715  and  _716
REMARK  342  A    between atoms: _716  and  _717
REMARK  343  A    between atoms: _716  and  _719
REMARK  344  A    between atoms: _719  and  _720
REMARK  345  A    between atoms: _723  and  _724
REMARK  346  A    between atoms: _724  and  _725
REMARK  347  A    between atoms: _724  and  _727
REMARK  348  A    between atoms: _727  and  _728
REMARK  349  A    between atoms: _731  and  _732
REMARK  350  A    between atoms: _732  and  _733
REMARK  351  A    between atoms: _732  and  _735
REMARK  352  A    between atoms: _735  and  _736
REMARK  353  A    between atoms: _739  and  _740
REMARK  354  A    between atoms: _740  and  _741
REMARK  355  A    between atoms: _743  and  _744
REMARK  356  A    between atoms: _744  and  _745
REMARK  357  A    between atoms: _744  and  _747
REMARK  358  A    between atoms: _750  and  _751
REMARK  359  A    between atoms: _751  and  _752
REMARK  360  A    between atoms: _751  and  _754
REMARK  361  A    between atoms: _754  and  _755
REMARK  362  A    between atoms: _758  and  _759
REMARK  363  A    between atoms: _759  and  _760
REMARK  364  A    between atoms: _763  and  _764
REMARK  365  A    between atoms: _764  and  _765
REMARK  366  A    between atoms: _764  and  _767
REMARK  367  A    between atoms: _767  and  _768
REMARK  368  A    between atoms: _768  and  _769
REMARK  369  A    between atoms: _769  and  _770
REMARK  370  A    between atoms: _772  and  _773
REMARK  371  A    between atoms: _773  and  _774
REMARK  372  A    between atoms: _773  and  _776
REMARK  373  A    between atoms: _778  and  _779
REMARK  374  A    between atoms: _779  and  _780
REMARK  375  A    between atoms: _782  and  _783
REMARK  376  A    between atoms: _783  and  _784
REMARK  377  A    between atoms: _783  and  _786
REMARK  378  A    between atoms: _789  and  _790
REMARK  379  A    between atoms: _790  and  _791
REMARK  380  A    between atoms: _790  and  _793
REMARK  381  A    between atoms: _793  and  _794
REMARK  382  A    between atoms: _794  and  _795
REMARK  383  A    between atoms: _795  and  _796
REMARK  384  A    between atoms: _798  and  _799
REMARK  385  A    between atoms: _799  and  _800
REMARK  386  A    between atoms: _803  and  _804
REMARK  387  A    between atoms: _804  and  _805
REMARK  388  A    between atoms: _804  and  _807
REMARK  389  A    between atoms: _807  and  _808
REMARK  390  A    between atoms: _814  and  _815
REMARK  391  A    between atoms: _815  and  _816
REMARK  392  A    between atoms: _815  and  _818
REMARK  393  A    between atoms: _818  and  _819
REMARK  394  A    between atoms: _819  and  _820
REMARK  395  A    between atoms: _822  and  _823
REMARK  396  A    between atoms: _823  and  _824
REMARK  397  A    between atoms: _823  and  _826
REMARK  398  A    between atoms: _826  and  _827
REMARK  399  A    between atoms: _827  and  _828
REMARK  400  A    between atoms: _831  and  _832
REMARK  401  A    between atoms: _832  and  _833
REMARK  402  A    between atoms: _836  and  _837
REMARK  403  A    between atoms: _837  and  _838
REMARK  404  A    between atoms: _837  and  _840
REMARK  405  A    between atoms: _840  and  _841
REMARK  406  A    between atoms: _844  and  _845
REMARK  407  A    between atoms: _845  and  _846
REMARK  408  A    between atoms: _845  and  _848
REMARK  409  A    between atoms: _848  and  _849
REMARK  410  A    between atoms: _849  and  _850
REMARK  411  A    between atoms: _853  and  _854
REMARK  412  A    between atoms: _854  and  _855
REMARK  413  A    between atoms: _858  and  _859
REMARK  414  A    between atoms: _859  and  _860
REMARK  415  A    between atoms: _862  and  _863
REMARK  416  A    between atoms: _863  and  _864
REMARK  417  A    between atoms: _867  and  _868
REMARK  418  A    between atoms: _868  and  _869
REMARK  419  A    between atoms: _868  and  _871
REMARK  420  A    between atoms: _871  and  _872
REMARK  421  A    between atoms: _875  and  _876
REMARK  422  A    between atoms: _876  and  _877
REMARK  423  A    between atoms: _876  and  _879
REMARK  424  A    between atoms: _879  and  _880
REMARK  425  A    between atoms: _883  and  _884
REMARK  426  A    between atoms: _884  and  _887
REMARK  427  A    between atoms: _906  and  _907
REMARK  428  A    between atoms: _906  and  _909
REMARK  429  A    between atoms: _909  and  _910
REMARK  430  A    between atoms: _913  and  _914
REMARK  431  A    between atoms: _914  and  _915
REMARK  432  A    between atoms: _917  and  _918
REMARK  433  A    between atoms: _918  and  _919
REMARK  434  A    between atoms: _918  and  _921
REMARK  435  A    between atoms: _921  and  _922
REMARK  436  A    between atoms: _922  and  _923
REMARK  437  A    between atoms: _926  and  _927
REMARK  438  A    between atoms: _927  and  _928
REMARK  439  A    between atoms: _927  and  _930
REMARK  440  A    between atoms: _930  and  _931
REMARK  441  A    between atoms: _937  and  _938
REMARK  442  A    between atoms: _938  and  _939
REMARK  443  A    between atoms: _941  and  _942
REMARK  444  A    between atoms: _942  and  _943
REMARK  445  A    between atoms: _942  and  _945
REMARK  446  A    between atoms: _948  and  _949
REMARK  447  A    between atoms: _949  and  _950
REMARK  448  A    between atoms: _952  and  _953
REMARK  449  A    between atoms: _953  and  _954
REMARK  450  A    between atoms: _953  and  _956
REMARK  451  A    between atoms: _956  and  _957
REMARK  452  A    between atoms: _963  and  _964
REMARK  453  A    between atoms: _964  and  _965
REMARK  454  A    between atoms: _964  and  _967
REMARK  455  A    between atoms: _967  and  _968
REMARK  456  A    between atoms: _975  and  _976
REMARK  457  A    between atoms: _976  and  _977
REMARK  458  A    between atoms: _976  and  _979
REMARK  459  A    between atoms: _981  and  _982
REMARK  460  A    between atoms: _982  and  _983
REMARK  461  A    between atoms: _986  and  _987
REMARK  462  A    between atoms: _987  and  _988
REMARK  463  A    between atoms: _987  and  _990
REMARK  464  A    between atoms: _990  and  _991
REMARK  465  A    between atoms: _998  and  _999
REMARK  466  A    between atoms: _999  and  _1000
REMARK  467  A    between atoms: _999  and  _1002
REMARK  468  A    between atoms: _1002  and  _1003
REMARK  469  A    between atoms: _1006  and  _1007
REMARK  470  A    between atoms: _1007  and  _1008
REMARK  471  A    between atoms: _1007  and  _1010
REMARK  472  A    between atoms: _1013  and  _1014
REMARK  473  A    between atoms: _1014  and  _1015
REMARK  474  A    between atoms: _1018  and  _1019
REMARK  475  A    between atoms: _1019  and  _1020
REMARK  476  A    between atoms: _1019  and  _1022
REMARK  477  A    between atoms: _1023  and  _1024
REMARK  478  A    between atoms: _1027  and  _1028
REMARK  479  A    between atoms: _1028  and  _1029
REMARK  480  A    between atoms: _1028  and  _1031
REMARK  481  A    between atoms: _1031  and  _1032
REMARK  482  A    between atoms: _1032  and  _1033
REMARK  483  A    between atoms: _1033  and  _1034
REMARK  484  A    between atoms: _1036  and  _1037
REMARK  485  A    between atoms: _1037  and  _1038
REMARK  486  A    between atoms: _1037  and  _1040
REMARK  487  A    between atoms: _1043  and  _1044
REMARK  488  A    between atoms: _1044  and  _1045
REMARK  489  A    between atoms: _1044  and  _1047
REMARK  490  A    between atoms: _1050  and  _1051
REMARK  491  A    between atoms: _1051  and  _1052
REMARK  492  A    between atoms: _1051  and  _1054
REMARK  493  A    between atoms: _1057  and  _1058
REMARK  494  A    between atoms: _1058  and  _1059
REMARK  495  A    between atoms: _1058  and  _1061
REMARK  496  A    between atoms: _1061  and  _1062
REMARK  497  A    between atoms: _1065  and  _1066
REMARK  498  A    between atoms: _1066  and  _1067
REMARK  499  A    between atoms: _1066  and  _1069
REMARK  500  A    between atoms: _1072  and  _1073
REMARK  501  A    between atoms: _1073  and  _1074
REMARK  502  A    between atoms: _1073  and  _1076
REMARK  503  A    between atoms: _1076  and  _1077
REMARK  504  A    between atoms: _1077  and  _1078
REMARK  505  A    between atoms: _1078  and  _1079
REMARK  506  A    between atoms: _1081  and  _1082
REMARK  507  A    between atoms: _1082  and  _1083
REMARK  508  A    between atoms: _1082  and  _1085
REMARK  509  A    between atoms: _1085  and  _1086
REMARK  510  A    between atoms: _1091  and  _1092
REMARK  511  A    between atoms: _1092  and  _1093
REMARK  512  A    between atoms: _1092  and  _1095
REMARK  513  A    between atoms: _1095  and  _1096
REMARK  514  A    between atoms: _1099  and  _1100
REMARK  515  A    between atoms: _1100  and  _1101
REMARK  516  A    between atoms: _1100  and  _1103
REMARK  517  A    between atoms: _1103  and  _1104
REMARK  518  A    between atoms: _1107  and  _1108
REMARK  519  A    between atoms: _1108  and  _1111
REMARK  520  A    between atoms: _1111  and  _1112
REMARK  521  A    between atoms: _1125  and  _1127
REMARK  522  A    between atoms: _1134  and  _1135
REMARK  523  A    between atoms: _1134  and  _1137
REMARK  524  A    between atoms: _1137  and  _1138
REMARK  525  A    between atoms: _1138  and  _1139
REMARK  526  A    between atoms: _1142  and  _1143
REMARK  527  A    between atoms: _1143  and  _1144
REMARK  528  A    between atoms: _1143  and  _1146
REMARK  529  A    between atoms: _1146  and  _1147
REMARK  530  A    between atoms: _1154  and  _1155
REMARK  531  A    between atoms: _1155  and  _1156
REMARK  532  A    between atoms: _1159  and  _1160
REMARK  533  A    between atoms: _1160  and  _1161
REMARK  534  A    between atoms: _1160  and  _1163
REMARK  535  A    between atoms: _1163  and  _1164
REMARK  536  A    between atoms: _1173  and  _1174
REMARK  537  A    between atoms: _1174  and  _1175
REMARK  538  A    between atoms: _1174  and  _1177
REMARK  539  A    between atoms: _1177  and  _1178
REMARK  540  A    between atoms: _1178  and  _1179
REMARK  541  A    between atoms: _1182  and  _1183
REMARK  542  A    between atoms: _1183  and  _1184
REMARK  543  A    between atoms: _1183  and  _1186
REMARK  544  A    between atoms: _1188  and  _1189
REMARK  545  A    between atoms: _1189  and  _1190
REMARK  546  A    between atoms: _1189  and  _1192
REMARK  547  A    between atoms: _1194  and  _1195
REMARK  548  A    between atoms: _1195  and  _1196
REMARK  549  A    between atoms: _1199  and  _1200
REMARK  550  A    between atoms: _1200  and  _1201
REMARK  551  A    between atoms: _1203  and  _1204
REMARK  552  A    between atoms: _1204  and  _1205
REMARK  553  A    between atoms: _1207  and  _1208
REMARK  554  A    between atoms: _1208  and  _1209
REMARK  555  A    between atoms: _1208  and  _1211
REMARK  556  A    between atoms: _1213  and  _1214
REMARK  557  A    between atoms: _1214  and  _1215
REMARK  558  A    between atoms: _1214  and  _1217
REMARK  559  A    between atoms: _1217  and  _1218
REMARK  560  A    between atoms: _1224  and  _1225
REMARK  561  A    between atoms: _1225  and  _1226
REMARK  562  A    between atoms: _1225  and  _1228
REMARK  563  A    between atoms: _1231  and  _1232
REMARK  564  A    between atoms: _1232  and  _1233
REMARK  565  A    between atoms: _1232  and  _1235
REMARK  566  A    between atoms: _1238  and  _1239
REMARK  567  A    between atoms: _1239  and  _1240
REMARK  568  A    between atoms: _1239  and  _1242
REMARK  569  A    between atoms: _1242  and  _1243
REMARK  570  A    between atoms: _1243  and  _1244
REMARK  571  A    between atoms: _1244  and  _1245
REMARK  572  A    between atoms: _1249  and  _1250
REMARK  573  A    between atoms: _1250  and  _1251
REMARK  574  A    between atoms: _1250  and  _1253
REMARK  575  A    between atoms: _1256  and  _1257
REMARK  576  A    between atoms: _1257  and  _1258
REMARK  577  A    between atoms: _1257  and  _1260
REMARK  578  A    between atoms: _1260  and  _1261
REMARK  579  A    between atoms: _1264  and  _1265
REMARK  580  A    between atoms: _1265  and  _1266
REMARK  581  A    between atoms: _1265  and  _1268
REMARK  582  A    between atoms: _1271  and  _1272
REMARK  583  A    between atoms: _1272  and  _1273
REMARK  584  A    between atoms: _1275  and  _1276
REMARK  585  A    between atoms: _1276  and  _1277
REMARK  586  A    between atoms: _1276  and  _1279
REMARK  587  A    between atoms: _1279  and  _1280
REMARK  588  A    between atoms: _1280  and  _1281
REMARK  589  A    between atoms: _1285  and  _1286
REMARK  590  A    between atoms: _1291  and  _1293
REMARK  591  A    between atoms: _1298  and  _1299
REMARK  592  A    between atoms: _1299  and  _1301
REMARK  593  A    between atoms: _1300  and  _1301
REMARK  594  A    between atoms: _1304  and  _1305
REMARK  595  A    between atoms: _1305  and  _1306
REMARK  596  A    between atoms: _1308  and  _1309
REMARK  597  A    between atoms: _1309  and  _1310
REMARK  598  A    between atoms: _1309  and  _1312
REMARK  599  A    between atoms: _1312  and  _1313
REMARK  600  A    between atoms: _1313  and  _1314
REMARK  601  A    between atoms: _1314  and  _1315
REMARK  602  A    between atoms: _1319  and  _1320
REMARK  603  A    between atoms: _1320  and  _1321
REMARK  604  A    between atoms: _1323  and  _1324
REMARK  605  A    between atoms: _1324  and  _1325
REMARK  606  A    between atoms: _1324  and  _1327
REMARK  607  A    between atoms: _1330  and  _1331
REMARK  608  A    between atoms: _1331  and  _1332
REMARK  609  A    between atoms: _1331  and  _1334
REMARK  610  A    between atoms: _1334  and  _1335
REMARK  611  A    between atoms: _1335  and  _1336
REMARK  612  A    between atoms: _1336  and  _1337
REMARK  613  A    between atoms: _1339  and  _1340
REMARK  614  A    between atoms: _1340  and  _1341
REMARK  615  A    between atoms: _1340  and  _1343
REMARK  616  A    between atoms: _1346  and  _1347
REMARK  617  A    between atoms: _1347  and  _1348
REMARK  618  A    between atoms: _1347  and  _1350
REMARK  619  A    between atoms: _1350  and  _1351
REMARK  620  A    between atoms: _1354  and  _1355
REMARK  621  A    between atoms: _1355  and  _1356
REMARK  622  A    between atoms: _1355  and  _1358
REMARK  623  A    between atoms: _1358  and  _1359
REMARK  624  A    between atoms: _1362  and  _1363
REMARK  625  A    between atoms: _1363  and  _1364
REMARK  626  A    between atoms: _1363  and  _1366
REMARK  627  A    between atoms: _1366  and  _1367
REMARK  628  A    between atoms: _1372  and  _1373
REMARK  629  A    between atoms: _1373  and  _1374
REMARK  630  A    between atoms: _1373  and  _1376
REMARK  631  A    between atoms: _1376  and  _1377
REMARK  632  A    between atoms: _1380  and  _1381
REMARK  633  A    between atoms: _1381  and  _1382
REMARK  634  A    between atoms: _1381  and  _1384
REMARK  635  A    between atoms: _1384  and  _1385
REMARK  636  A    between atoms: _1385  and  _1386
REMARK  637  A    between atoms: _1386  and  _1387
REMARK  638  A    between atoms: _1389  and  _1390
REMARK  639  A    between atoms: _1390  and  _1391
REMARK  640  A    between atoms: _1390  and  _1393
REMARK  641  A    between atoms: _1393  and  _1394
REMARK  642  A    between atoms: _1394  and  _1395
REMARK  643  A    between atoms: _1398  and  _1399
REMARK  644  A    between atoms: _1399  and  _1400
REMARK  645  A    between atoms: _1399  and  _1402
REMARK  646  A    between atoms: _1402  and  _1403
REMARK  647  A    between atoms: _1406  and  _1407
REMARK  648  A    between atoms: _1407  and  _1408
REMARK  649  A    between atoms: _1407  and  _1410
REMARK  650  A    between atoms: _1410  and  _1411
REMARK  651  A    between atoms: _1411  and  _1412
REMARK  652  A    between atoms: _1415  and  _1416
REMARK  653  A    between atoms: _1416  and  _1417
REMARK  654  A    between atoms: _1416  and  _1419
REMARK  655  A    between atoms: _1422  and  _1423
REMARK  656  A    between atoms: _1423  and  _1424
REMARK  657  A    between atoms: _1423  and  _1426
REMARK  658  A    between atoms: _1426  and  _1427
REMARK  659  A    between atoms: _1427  and  _1428
REMARK  660  A    between atoms: _1431  and  _1432
REMARK  661  A    between atoms: _1432  and  _1433
REMARK  662  A    between atoms: _1432  and  _1435
REMARK  663  A    between atoms: _1435  and  _1436
REMARK  664  A    between atoms: _1443  and  _1444
REMARK  665  A    between atoms: _1444  and  _1445
REMARK  666  A    between atoms: _1444  and  _1447
REMARK  667  A    between atoms: _1447  and  _1448
REMARK  668  A    between atoms: _1451  and  _1452
REMARK  669  A    between atoms: _1452  and  _1453
REMARK  670  A    between atoms: _1452  and  _1455
REMARK  671  A    between atoms: _1455  and  _1456
REMARK  672  A    between atoms: _1456  and  _1457
REMARK  673  A    between atoms: _1460  and  _1461
REMARK  674  A    between atoms: _1461  and  _1462
REMARK  675  A    between atoms: _1461  and  _1464
REMARK  676  A    between atoms: _1464  and  _1465
REMARK  677  A    between atoms: _1465  and  _1466
REMARK  678  A    between atoms: _1469  and  _1470
REMARK  679  A    between atoms: _1470  and  _1471
REMARK  680  A    between atoms: _1470  and  _1473
REMARK  681  A    between atoms: _1473  and  _1474
REMARK  682  A    between atoms: _1474  and  _1475
REMARK  683  A    between atoms: _1475  and  _1476
REMARK  684  A    between atoms: _1480  and  _1481
REMARK  685  A    between atoms: _1481  and  _1482
REMARK  686  A    between atoms: _1481  and  _1484
REMARK  687  A    between atoms: _1484  and  _1485
REMARK  688  A    between atoms: _1485  and  _1486
REMARK  689  A    between atoms: _1486  and  _1487
REMARK  690  A    between atoms: _1491  and  _1492
REMARK  691  A    between atoms: _1492  and  _1493
REMARK  692  A    between atoms: _1492  and  _1495
REMARK  693  A    between atoms: _1495  and  _1496
REMARK  694  A    between atoms: _1499  and  _1500
REMARK  695  A    between atoms: _1500  and  _1501
REMARK  696  A    between atoms: _1500  and  _1503
REMARK  697  A    between atoms: _1503  and  _1504
REMARK  698  A    between atoms: _1504  and  _1505
REMARK  699  A    between atoms: _1505  and  _1506
REMARK  700  A    between atoms: _1508  and  _1509
REMARK  701  A    between atoms: _1509  and  _1510
REMARK  702  A    between atoms: _1509  and  _1512
REMARK  703  A    between atoms: _1512  and  _1513
REMARK  704  A    between atoms: _1513  and  _1514
REMARK  705  A    between atoms: _1517  and  _1518
REMARK  706  A    between atoms: _1518  and  _1519
REMARK  707  A    between atoms: _1518  and  _1521
REMARK  708  A    between atoms: _1521  and  _1522
REMARK  709  A    between atoms: _1525  and  _1526
REMARK  710  A    between atoms: _1526  and  _1527
REMARK  711  A    between atoms: _1526  and  _1529
REMARK  712  A    between atoms: _1532  and  _1533
REMARK  713  A    between atoms: _1533  and  _1534
REMARK  714  A    between atoms: _1533  and  _1536
REMARK  715  A    between atoms: _1536  and  _1537
REMARK  716  A    between atoms: _1537  and  _1538
REMARK  717  A    between atoms: _1538  and  _1539
REMARK  718  A    between atoms: _1541  and  _1542
REMARK  719  A    between atoms: _1542  and  _1543
REMARK  720  A    between atoms: _1542  and  _1545
REMARK  721  A    between atoms: _1545  and  _1546
REMARK  722  A    between atoms: _1546  and  _1547
REMARK  723  A    between atoms: _1547  and  _1548
REMARK  724  A    between atoms: _1550  and  _1551
REMARK  725  A    between atoms: _1551  and  _1552
REMARK  726  A    between atoms: _1551  and  _1554
REMARK  727  A    between atoms: _1554  and  _1555
REMARK  728  A    between atoms: _1560  and  _1561
REMARK  729  A    between atoms: _1561  and  _1562
REMARK  730  A    between atoms: _1561  and  _1564
REMARK  731  A    between atoms: _1566  and  _1567
REMARK  732  A    between atoms: _1567  and  _1568
REMARK  733  A    between atoms: _1567  and  _1570
REMARK  734  A    between atoms: _1570  and  _1571
REMARK  735  A    between atoms: _1571  and  _1572
REMARK  736  A    between atoms: _1575  and  _1576
REMARK  737  A    between atoms: _1576  and  _1577
REMARK  738  A    between atoms: _1576  and  _1579
REMARK  739  A    between atoms: _1579  and  _1580
REMARK  740  A    between atoms: _1586  and  _1587
REMARK  741  A    between atoms: _1587  and  _1588
REMARK  742  A    between atoms: _1587  and  _1590
REMARK  743  A    between atoms: _1590  and  _1591
REMARK  744  A    between atoms: _1594  and  _1595
REMARK  745  A    between atoms: _1595  and  _1596
REMARK  746  A    between atoms: _1598  and  _1599
REMARK  747  A    between atoms: _1599  and  _1600
REMARK  748  A    between atoms: _1599  and  _1602
REMARK  749  A    between atoms: _1602  and  _1603
REMARK  750  A    between atoms: _1611  and  _1612
REMARK  751  A    between atoms: _1617  and  _1618
REMARK  752  A    between atoms: _1618  and  _1619
REMARK  753  A    between atoms: _1618  and  _1621
REMARK  754  A    between atoms: _1621  and  _1622
REMARK  755  A    between atoms: _1625  and  _1626
REMARK  756  A    between atoms: _1626  and  _1627
REMARK  757  A    between atoms: _1626  and  _1629
REMARK  758  A    between atoms: _1632  and  _1633
REMARK  759  A    between atoms: _1633  and  _1634
REMARK  760  A    between atoms: _1633  and  _1636
REMARK  761  A    between atoms: _1636  and  _1637
REMARK  762  A    between atoms: _1640  and  _1641
REMARK  763  A    between atoms: _1641  and  _1642
REMARK  764  A    between atoms: _1641  and  _1644
REMARK  765  A    between atoms: _1644  and  _1645
REMARK  766  A    between atoms: _1651  and  _1652
REMARK  767  A    between atoms: _1652  and  _1653
REMARK  768  A    between atoms: _1652  and  _1655
REMARK  769  A    between atoms: _1658  and  _1659
REMARK  770  A    between atoms: _1659  and  _1660
REMARK  771  A    between atoms: _1659  and  _1662
REMARK  772  A    between atoms: _1662  and  _1663
REMARK  773  A    between atoms: _1663  and  _1664
REMARK  774  A    between atoms: _1667  and  _1668
REMARK  775  A    between atoms: _1668  and  _1669
REMARK  776  A    between atoms: _1668  and  _1671
REMARK  777  A    between atoms: _1671  and  _1672
REMARK  778  A    between atoms: _1672  and  _1673
REMARK  779  A    between atoms: _1673  and  _1674
REMARK                            x       y       z     vdW  Elec       q    Type
REMARK                         _______ _______ _______ _____ _____    ______ ____
ROOT
ATOM      1  C   UNL     1       5.494  37.247  40.855  0.00  0.00    +0.320 C 
ATOM      2  N   UNL     1       6.639  37.963  40.818  0.00  0.00    -0.196 NA
ATOM      3  C   UNL     1       6.851  39.192  40.055  0.00  0.00    +0.139 C 
ATOM      4  O   UNL     1       4.473  37.582  40.252  0.00  0.00    -0.263 OA
ENDROOT
TORSDOF 0
REMARK  Name = /Users/mlugowska/PhD/ML_residence_time_prediction/protein_files/5NYH_protein.pdb
REMARK  779 active torsions:
REMARK  status: ('A' for Active; 'I' for Inactive)
REMARK    1  A    between atoms: _2  and  _3
REMARK    2  A    between atoms: _2  and  _5
REMARK    3  A    between atoms: _5  and  _6
REMARK    4  A    between atoms: _6  and  _7
REMARK    5  A    between atoms: _10  and  _11
REMARK    6  A    between atoms: _11  and  _12
REMARK    7  A    between atoms: _11  and  _14
REMARK    8  A    between atoms: _17  and  _18
REMARK    9  A    between atoms: _18  and  _19
REMARK   10  A    between atoms: _18  and  _21
REMARK   11  A    between atoms: _21  and  _22
REMARK   12  A    between atoms: _22  and  _23
REMARK   13  A    between atoms: _26  and  _27
REMARK   14  A    between atoms: _27  and  _28
REMARK   15  A    between atoms: _27  and  _30
REMARK   16  A    between atoms: _33  and  _34
REMARK   17  A    between atoms: _34  and  _35
REMARK   18  A    between atoms: _34  and  _37
REMARK   19  A    between atoms: _37  and  _38
REMARK   20  A    between atoms: _44  and  _45
REMARK   21  A    between atoms: _45  and  _46
REMARK   22  A    between atoms: _49  and  _50
REMARK   23  A    between atoms: _50  and  _51
REMARK   24  A    between atoms: _50  and  _53
REMARK   25  A    between atoms: _53  and  _54
REMARK   26  A    between atoms: _60  and  _61
REMARK   27  A    between atoms: _61  and  _62
REMARK   28  A    between atoms: _61  and  _64
REMARK   29  A    between atoms: _64  and  _65
REMARK   30  A    between atoms: _65  and  _66
REMARK   31  A    between atoms: _69  and  _70
REMARK   32  A    between atoms: _70  and  _71
REMARK   33  A    between atoms: _74  and  _75
REMARK   34  A    between atoms: _75  and  _76
REMARK   35  A    between atoms: _75  and  _78
REMARK   36  A    between atoms: _78  and  _79
REMARK   37  A    between atoms: _79  and  _80
REMARK   38  A    between atoms: _83  and  _84
REMARK   39  A    between atoms: _84  and  _85
REMARK   40  A    between atoms: _84  and  _87
REMARK   41  A    between atoms: _87  and  _88
REMARK   42  A    between atoms: _91  and  _92
REMARK   43  A    between atoms: _92  and  _93
REMARK   44  A    between atoms: _96  and  _97
REMARK   45  A    between atoms: _97  and  _98
REMARK   46  A    between atoms: _97  and  _100
REMARK   47  A    between atoms: _100  and  _101
REMARK   48  A    between atoms: _101  and  _102
REMARK   49  A    between atoms: _105  and  _106
REMARK   50  A    between atoms: _106  and  _107
REMARK   51  A    between atoms: _106  and  _109
REMARK   52  A    between atoms: _109  and  _110
REMARK   53  A    between atoms: _113  and  _114
REMARK   54  A    between atoms: _114  and  _115
REMARK   55  A    between atoms: _114  and  _117
REMARK   56  A    between atoms: _117  and  _118
REMARK   57  A    between atoms: _118  and  _119
REMARK   58  A    between atoms: _121  and  _122
REMARK   59  A    between atoms: _122  and  _123
REMARK   60  A    between atoms: _122  and  _125
REMARK   61  A    between atoms: _127  and  _128
REMARK   62  A    between atoms: _128  and  _129
REMARK   63  A    between atoms: _128  and  _131
REMARK   64  A    between atoms: _131  and  _132
REMARK   65  A    between atoms: _135  and  _136
REMARK   66  A    between atoms: _136  and  _137
REMARK   67  A    between atoms: _136  and  _139
REMARK   68  A    between atoms: _139  and  _140
REMARK   69  A    between atoms: _143  and  _144
REMARK   70  A    between atoms: _144  and  _145
REMARK   71  A    between atoms: _144  and  _147
REMARK   72  A    between atoms: _147  and  _148
REMARK   73  A    between atoms: _151  and  _152
REMARK   74  A    between atoms: _152  and  _153
REMARK   75  A    between atoms: _152  and  _155
REMARK   76  A    between atoms: _155  and  _156
REMARK   77  A    between atoms: _159  and  _160
REMARK   78  A    between atoms: _160  and  _161
REMARK   79  A    between atoms: _160  and  _163
REMARK   80  A    between atoms: _166  and  _167
REMARK   81  A    between atoms: _167  and  _168
REMARK   82  A    between atoms: _167  and  _170
REMARK   83  A    between atoms: _170  and  _171
REMARK   84  A    between atoms: _177  and  _178
REMARK   85  A    between atoms: _178  and  _179
REMARK   86  A    between atoms: _178  and  _181
REMARK   87  A    between atoms: _181  and  _182
REMARK   88  A    between atoms: _189  and  _190
REMARK   89  A    between atoms: _190  and  _191
REMARK   90  A    between atoms: _190  and  _193
REMARK   91  A    between atoms: _195  and  _196
REMARK   92  A    between atoms: _196  and  _197
REMARK   93  A    between atoms: _196  and  _199
REMARK   94  A    between atoms: _199  and  _200
REMARK   95  A    between atoms: _203  and  _204
REMARK   96  A    between atoms: _204  and  _205
REMARK   97  A    between atoms: _204  and  _207
REMARK   98  A    between atoms: _207  and  _208
REMARK   99  A    between atoms: _208  and  _209
REMARK  100  A    between atoms: _209  and  _210
REMARK  101  A    between atoms: _212  and  _213
REMARK  102  A    between atoms: _213  and  _214
REMARK  103  A    between atoms: _213  and  _216
REMARK  104  A    between atoms: _216  and  _217
REMARK  105  A    between atoms: _217  and  _218
REMARK  106  A    between atoms: _221  and  _222
REMARK  107  A    between atoms: _222  and  _223
REMARK  108  A    between atoms: _222  and  _225
REMARK  109  A    between atoms: _225  and  _226
REMARK  110  A    between atoms: _229  and  _230
REMARK  111  A    between atoms: _230  and  _231
REMARK  112  A    between atoms: _230  and  _233
REMARK  113  A    between atoms: _233  and  _234
REMARK  114  A    between atoms: _240  and  _241
REMARK  115  A    between atoms: _241  and  _242
REMARK  116  A    between atoms: _241  and  _244
REMARK  117  A    between atoms: _244  and  _245
REMARK  118  A    between atoms: _248  and  _249
REMARK  119  A    between atoms: _249  and  _250
REMARK  120  A    between atoms: _249  and  _252
REMARK  121  A    between atoms: _252  and  _253
REMARK  122  A    between atoms: _253  and  _254
REMARK  123  A    between atoms: _254  and  _255
REMARK  124  A    between atoms: _259  and  _260
REMARK  125  A    between atoms: _260  and  _261
REMARK  126  A    between atoms: _260  and  _263
REMARK  127  A    between atoms: _263  and  _264
REMARK  128  A    between atoms: _264  and  _265
REMARK  129  A    between atoms: _268  and  _269
REMARK  130  A    between atoms: _269  and  _270
REMARK  131  A    between atoms: _269  and  _272
REMARK  132  A    between atoms: _272  and  _273
REMARK  133  A    between atoms: _276  and  _277
REMARK  134  A    between atoms: _277  and  _278
REMARK  135  A    between atoms: _277  and  _280
REMARK  136  A    between atoms: _280  and  _281
REMARK  137  A    between atoms: _284  and  _285
REMARK  138  A    between atoms: _285  and  _286
REMARK  139  A    between atoms: _285  and  _288
REMARK  140  A    between atoms: _290  and  _291
REMARK  141  A    between atoms: _291  and  _292
REMARK  142  A    between atoms: _291  and  _294
REMARK  143  A    between atoms: _294  and  _295
REMARK  144  A    between atoms: _298  and  _299
REMARK  145  A    between atoms: _299  and  _300
REMARK  146  A    between atoms: _299  and  _302
REMARK  147  A    between atoms: _304  and  _305
REMARK  148  A    between atoms: _305  and  _306
REMARK  149  A    between atoms: _305  and  _308
REMARK  150  A    between atoms: _310  and  _311
REMARK  151  A    between atoms: _311  and  _312
REMARK  152  A    between atoms: _311  and  _314
REMARK  153  A    between atoms: _314  and  _315
REMARK  154  A    between atoms: _318  and  _319
REMARK  155  A    between atoms: _319  and  _320
REMARK  156  A    between atoms: _323  and  _324
REMARK  157  A    between atoms: _324  and  _325
REMARK  158  A    between atoms: _324  and  _327
REMARK  159  A    between atoms: _327  and  _328
REMARK  160  A    between atoms: _331  and  _332
REMARK  161  A    between atoms: _332  and  _333
REMARK  162  A    between atoms: _332  and  _335
REMARK  163  A    between atoms: _335  and  _336
REMARK  164  A    between atoms: _339  and  _340
REMARK  165  A    between atoms: _340  and  _341
REMARK  166  A    between atoms: _340  and  _343
REMARK  167  A    between atoms: _343  and  _344
REMARK  168  A    between atoms: _344  and  _345
REMARK  169  A    between atoms: _345  and  _346
REMARK  170  A    between atoms: _348  and  _349
REMARK  171  A    between atoms: _349  and  _350
REMARK  172  A    between atoms: _349  and  _352
REMARK  173  A    between atoms: _352  and  _353
REMARK  174  A    between atoms: _356  and  _357
REMARK  175  A    between atoms: _357  and  _358
REMARK  176  A    between atoms: _357  and  _360
REMARK  177  A    between atoms: _360  and  _361
REMARK  178  A    between atoms: _361  and  _362
REMARK  179  A    between atoms: _362  and  _363
REMARK  180  A    between atoms: _367  and  _368
REMARK  181  A    between atoms: _368  and  _369
REMARK  182  A    between atoms: _368  and  _371
REMARK  183  A    between atoms: _371  and  _372
REMARK  184  A    between atoms: _379  and  _380
REMARK  185  A    between atoms: _380  and  _381
REMARK  186  A    between atoms: _380  and  _383
REMARK  187  A    between atoms: _383  and  _384
REMARK  188  A    between atoms: _384  and  _385
REMARK  189  A    between atoms: _388  and  _389
REMARK  190  A    between atoms: _389  and  _390
REMARK  191  A    between atoms: _389  and  _392
REMARK  192  A    between atoms: _394  and  _395
REMARK  193  A    between atoms: _395  and  _396
REMARK  194  A    between atoms: _395  and  _398
REMARK  195  A    between atoms: _398  and  _399
REMARK  196  A    between atoms: _402  and  _403
REMARK  197  A    between atoms: _403  and  _404
REMARK  198  A    between atoms: _403  and  _406
REMARK  199  A    between atoms: _409  and  _410
REMARK  200  A    between atoms: _410  and  _411
REMARK  201  A    between atoms: _410  and  _413
REMARK  202  A    between atoms: _413  and  _414
REMARK  203  A    between atoms: _418  and  _419
REMARK  204  A    between atoms: _424  and  _425
REMARK  205  A    between atoms: _425  and  _426
REMARK  206  A    between atoms: _425  and  _428
REMARK  207  A    between atoms: _430  and  _431
REMARK  208  A    between atoms: _431  and  _432
REMARK  209  A    between atoms: _431  and  _434
REMARK  210  A    between atoms: _434  and  _435
REMARK  211  A    between atoms: _435  and  _436
REMARK  212  A    between atoms: _436  and  _437
REMARK  213  A    between atoms: _439  and  _440
REMARK  214  A    between atoms: _440  and  _441
REMARK  215  A    between atoms: _440  and  _443
REMARK  216  A    between atoms: _443  and  _444
REMARK  217  A    between atoms: _447  and  _448
REMARK  218  A    between atoms: _448  and  _449
REMARK  219  A    between atoms: _448  and  _451
REMARK  220  A    between atoms: _451  and  _452
REMARK  221  A    between atoms: _455  and  _456
REMARK  222  A    between atoms: _456  and  _457
REMARK  223  A    between atoms: _456  and  _459
REMARK  224  A    between atoms: _461  and  _462
REMARK  225  A    between atoms: _462  and  _463
REMARK  226  A    between atoms: _465  and  _466
REMARK  227  A    between atoms: _466  and  _467
REMARK  228  A    between atoms: _466  and  _469
REMARK  229  A    between atoms: _469  and  _470
REMARK  230  A    between atoms: _470  and  _471
REMARK  231  A    between atoms: _471  and  _472
REMARK  232  A    between atoms: _474  and  _475
REMARK  233  A    between atoms: _475  and  _476
REMARK  234  A    between atoms: _475  and  _478
REMARK  235  A    between atoms: _478  and  _479
REMARK  236  A    between atoms: _479  and  _480
REMARK  237  A    between atoms: _483  and  _484
REMARK  238  A    between atoms: _484  and  _485
REMARK  239  A    between atoms: _484  and  _487
REMARK  240  A    between atoms: _487  and  _488
REMARK  241  A    between atoms: _491  and  _492
REMARK  242  A    between atoms: _492  and  _493
REMARK  243  A    between atoms: _492  and  _495
REMARK  244  A    between atoms: _495  and  _496
REMARK  245  A    between atoms: _501  and  _502
REMARK  246  A    between atoms: _502  and  _503
REMARK  247  A    between atoms: _502  and  _505
REMARK  248  A    between atoms: _505  and  _506
REMARK  249  A    between atoms: _509  and  _510
REMARK  250  A    between atoms: _510  and  _511
REMARK  251  A    between atoms: _510  and  _513
REMARK  252  A    between atoms: _513  and  _514
REMARK  253  A    between atoms: _517  and  _518
REMARK  254  A    between atoms: _518  and  _519
REMARK  255  A    between atoms: _518  and  _521
REMARK  256  A    between atoms: _521  and  _522
REMARK  257  A    between atoms: _525  and  _526
REMARK  258  A    between atoms: _526  and  _527
REMARK  259  A    between atoms: _526  and  _529
REMARK  260  A    between atoms: _529  and  _530
REMARK  261  A    between atoms: _534  and  _535
REMARK  262  A    between atoms: _540  and  _541
REMARK  263  A    between atoms: _541  and  _542
REMARK  264  A    between atoms: _541  and  _544
REMARK  265  A    between atoms: _544  and  _545
REMARK  266  A    between atoms: _548  and  _549
REMARK  267  A    between atoms: _549  and  _552
REMARK  268  A    between atoms: _552  and  _553
REMARK  269  A    between atoms: _553  and  _554
REMARK  270  A    between atoms: _554  and  _555
REMARK  271  A    between atoms: _568  and  _569
REMARK  272  A    between atoms: _576  and  _577
REMARK  273  A    between atoms: _576  and  _579
REMARK  274  A    between atoms: _579  and  _580
REMARK  275  A    between atoms: _583  and  _584
REMARK  276  A    between atoms: _584  and  _585
REMARK  277  A    between atoms: _584  and  _587
REMARK  278  A    between atoms: _587  and  _588
REMARK  279  A    between atoms: _588  and  _589
REMARK  280  A    between atoms: _589  and  _590
REMARK  281  A    between atoms: _594  and  _595
REMARK  282  A    between atoms: _595  and  _596
REMARK  283  A    between atoms: _595  and  _598
REMARK  284  A    between atoms: _601  and  _602
REMARK  285  A    between atoms: _602  and  _603
REMARK  286  A    between atoms: _602  and  _605
REMARK  287  A    between atoms: _605  and  _606
REMARK  288  A    between atoms: _609  and  _610
REMARK  289  A    between atoms: _610  and  _611
REMARK  290  A    between atoms: _610  and  _613
REMARK  291  A    between atoms: _616  and  _617
REMARK  292  A    between atoms: _617  and  _618
REMARK  293  A    between atoms: _617  and  _620
REMARK  294  A    between atoms: _620  and  _621
REMARK  295  A    between atoms: _624  and  _625
REMARK  296  A    between atoms: _625  and  _626
REMARK  297  A    between atoms: _625  and  _628
REMARK  298  A    between atoms: _631  and  _632
REMARK  299  A    between atoms: _632  and  _633
REMARK  300  A    between atoms: _632  and  _635
REMARK  301  A    between atoms: _635  and  _636
REMARK  302  A    between atoms: _639  and  _640
REMARK  303  A    between atoms: _640  and  _641
REMARK  304  A    between atoms: _640  and  _643
REMARK  305  A    between atoms: _646  and  _647
REMARK  306  A    between atoms: _647  and  _648
REMARK  307  A    between atoms: _650  and  _651
REMARK  308  A    between atoms: _651  and  _652
REMARK  309  A    between atoms: _651  and  _654
REMARK  310  A    between atoms: _654  and  _655
REMARK  311  A    between atoms: _658  and  _659
REMARK  312  A    between atoms: _659  and  _660
REMARK  313  A    between atoms: _662  and  _663
REMARK  314  A    between atoms: _663  and  _664
REMARK  315  A    between atoms: _663  and  _666
REMARK  316  A    between atoms: _666  and  _667
REMARK  317  A    between atoms: _667  and  _668
REMARK  318  A    between atoms: _670  and  _671
REMARK  319  A    between atoms: _671  and  _672
REMARK  320  A    between atoms: _671  and  _674
REMARK  321  A    between atoms: _677  and  _678
REMARK  322  A    between atoms: _678  and  _679
REMARK  323  A    between atoms: _678  and  _681
REMARK  324  A    between atoms: _681  and  _682
REMARK  325  A    between atoms: _682  and  _683
REMARK  326  A    between atoms: _683  and  _684
REMARK  327  A    between atoms: _686  and  _687
REMARK  328  A    between atoms: _687  and  _688
REMARK  329  A    between atoms: _691  and  _692
REMARK  330  A    between atoms: _692  and  _693
REMARK  331  A    between atoms: _692  and  _695
REMARK  332  A    between atoms: _695  and  _696
REMARK  333  A    between atoms: _699  and  _700
REMARK  334  A    between atoms: _700  and  _701
REMARK  335  A    between atoms: _700  and  _703
REMARK  336  A    between atoms: _703  and  _704
REMARK  337  A    between atoms: _707  and  _708
REMARK  338  A    between atoms: _708  and  _709
REMARK  339  A    between atoms: _708  and  _711
REMARK  340  A    between atoms: _711  and  _712
REMARK  341  A    between atoms: _715  and  _716
REMARK  342  A    between atoms: _716  and  _717
REMARK  343  A    between atoms: _716  and  _719
REMARK  344  A    between atoms: _719  and  _720
REMARK  345  A    between atoms: _723  and  _724
REMARK  346  A    between atoms: _724  and  _725
REMARK  347  A    between atoms: _724  and  _727
REMARK  348  A    between atoms: _727  and  _728
REMARK  349  A    between atoms: _731  and  _732
REMARK  350  A    between atoms: _732  and  _733
REMARK  351  A    between atoms: _732  and  _735
REMARK  352  A    between atoms: _735  and  _736
REMARK  353  A    between atoms: _739  and  _740
REMARK  354  A    between atoms: _740  and  _741
REMARK  355  A    between atoms: _743  and  _744
REMARK  356  A    between atoms: _744  and  _745
REMARK  357  A    between atoms: _744  and  _747
REMARK  358  A    between atoms: _750  and  _751
REMARK  359  A    between atoms: _751  and  _752
REMARK  360  A    between atoms: _751  and  _754
REMARK  361  A    between atoms: _754  and  _755
REMARK  362  A    between atoms: _758  and  _759
REMARK  363  A    between atoms: _759  and  _760
REMARK  364  A    between atoms: _763  and  _764
REMARK  365  A    between atoms: _764  and  _765
REMARK  366  A    between atoms: _764  and  _767
REMARK  367  A    between atoms: _767  and  _768
REMARK  368  A    between atoms: _768  and  _769
REMARK  369  A    between atoms: _769  and  _770
REMARK  370  A    between atoms: _772  and  _773
REMARK  371  A    between atoms: _773  and  _774
REMARK  372  A    between atoms: _773  and  _776
REMARK  373  A    between atoms: _778  and  _779
REMARK  374  A    between atoms: _779  and  _780
REMARK  375  A    between atoms: _782  and  _783
REMARK  376  A    between atoms: _783  and  _784
REMARK  377  A    between atoms: _783  and  _786
REMARK  378  A    between atoms: _789  and  _790
REMARK  379  A    between atoms: _790  and  _791
REMARK  380  A    between atoms: _790  and  _793
REMARK  381  A    between atoms: _793  and  _794
REMARK  382  A    between atoms: _794  and  _795
REMARK  383  A    between atoms: _795  and  _796
REMARK  384  A    between atoms: _798  and  _799
REMARK  385  A    between atoms: _799  and  _800
REMARK  386  A    between atoms: _803  and  _804
REMARK  387  A    between atoms: _804  and  _805
REMARK  388  A    between atoms: _804  and  _807
REMARK  389  A    between atoms: _807  and  _808
REMARK  390  A    between atoms: _814  and  _815
REMARK  391  A    between atoms: _815  and  _816
REMARK  392  A    between atoms: _815  and  _818
REMARK  393  A    between atoms: _818  and  _819
REMARK  394  A    between atoms: _819  and  _820
REMARK  395  A    between atoms: _822  and  _823
REMARK  396  A    between atoms: _823  and  _824
REMARK  397  A    between atoms: _823  and  _826
REMARK  398  A    between atoms: _826  and  _827
REMARK  399  A    between atoms: _827  and  _828
REMARK  400  A    between atoms: _831  and  _832
REMARK  401  A    between atoms: _832  and  _833
REMARK  402  A    between atoms: _836  and  _837
REMARK  403  A    between atoms: _837  and  _838
REMARK  404  A    between atoms: _837  and  _840
REMARK  405  A    between atoms: _840  and  _841
REMARK  406  A    between atoms: _844  and  _845
REMARK  407  A    between atoms: _845  and  _846
REMARK  408  A    between atoms: _845  and  _848
REMARK  409  A    between atoms: _848  and  _849
REMARK  410  A    between atoms: _849  and  _850
REMARK  411  A    between atoms: _853  and  _854
REMARK  412  A    between atoms: _854  and  _855
REMARK  413  A    between atoms: _858  and  _859
REMARK  414  A    between atoms: _859  and  _860
REMARK  415  A    between atoms: _862  and  _863
REMARK  416  A    between atoms: _863  and  _864
REMARK  417  A    between atoms: _867  and  _868
REMARK  418  A    between atoms: _868  and  _869
REMARK  419  A    between atoms: _868  and  _871
REMARK  420  A    between atoms: _871  and  _872
REMARK  421  A    between atoms: _875  and  _876
REMARK  422  A    between atoms: _876  and  _877
REMARK  423  A    between atoms: _876  and  _879
REMARK  424  A    between atoms: _879  and  _880
REMARK  425  A    between atoms: _883  and  _884
REMARK  426  A    between atoms: _884  and  _887
REMARK  427  A    between atoms: _906  and  _907
REMARK  428  A    between atoms: _906  and  _909
REMARK  429  A    between atoms: _909  and  _910
REMARK  430  A    between atoms: _913  and  _914
REMARK  431  A    between atoms: _914  and  _915
REMARK  432  A    between atoms: _917  and  _918
REMARK  433  A    between atoms: _918  and  _919
REMARK  434  A    between atoms: _918  and  _921
REMARK  435  A    between atoms: _921  and  _922
REMARK  436  A    between atoms: _922  and  _923
REMARK  437  A    between atoms: _926  and  _927
REMARK  438  A    between atoms: _927  and  _928
REMARK  439  A    between atoms: _927  and  _930
REMARK  440  A    between atoms: _930  and  _931
REMARK  441  A    between atoms: _937  and  _938
REMARK  442  A    between atoms: _938  and  _939
REMARK  443  A    between atoms: _941  and  _942
REMARK  444  A    between atoms: _942  and  _943
REMARK  445  A    between atoms: _942  and  _945
REMARK  446  A    between atoms: _948  and  _949
REMARK  447  A    between atoms: _949  and  _950
REMARK  448  A    between atoms: _952  and  _953
REMARK  449  A    between atoms: _953  and  _954
REMARK  450  A    between atoms: _953  and  _956
REMARK  451  A    between atoms: _956  and  _957
REMARK  452  A    between atoms: _963  and  _964
REMARK  453  A    between atoms: _964  and  _965
REMARK  454  A    between atoms: _964  and  _967
REMARK  455  A    between atoms: _967  and  _968
REMARK  456  A    between atoms: _975  and  _976
REMARK  457  A    between atoms: _976  and  _977
REMARK  458  A    between atoms: _976  and  _979
REMARK  459  A    between atoms: _981  and  _982
REMARK  460  A    between atoms: _982  and  _983
REMARK  461  A    between atoms: _986  and  _987
REMARK  462  A    between atoms: _987  and  _988
REMARK  463  A    between atoms: _987  and  _990
REMARK  464  A    between atoms: _990  and  _991
REMARK  465  A    between atoms: _998  and  _999
REMARK  466  A    between atoms: _999  and  _1000
REMARK  467  A    between atoms: _999  and  _1002
REMARK  468  A    between atoms: _1002  and  _1003
REMARK  469  A    between atoms: _1006  and  _1007
REMARK  470  A    between atoms: _1007  and  _1008
REMARK  471  A    between atoms: _1007  and  _1010
REMARK  472  A    between atoms: _1013  and  _1014
REMARK  473  A    between atoms: _1014  and  _1015
REMARK  474  A    between atoms: _1018  and  _1019
REMARK  475  A    between atoms: _1019  and  _1020
REMARK  476  A    between atoms: _1019  and  _1022
REMARK  477  A    between atoms: _1023  and  _1024
REMARK  478  A    between atoms: _1027  and  _1028
REMARK  479  A    between atoms: _1028  and  _1029
REMARK  480  A    between atoms: _1028  and  _1031
REMARK  481  A    between atoms: _1031  and  _1032
REMARK  482  A    between atoms: _1032  and  _1033
REMARK  483  A    between atoms: _1033  and  _1034
REMARK  484  A    between atoms: _1036  and  _1037
REMARK  485  A    between atoms: _1037  and  _1038
REMARK  486  A    between atoms: _1037  and  _1040
REMARK  487  A    between atoms: _1043  and  _1044
REMARK  488  A    between atoms: _1044  and  _1045
REMARK  489  A    between atoms: _1044  and  _1047
REMARK  490  A    between atoms: _1050  and  _1051
REMARK  491  A    between atoms: _1051  and  _1052
REMARK  492  A    between atoms: _1051  and  _1054
REMARK  493  A    between atoms: _1057  and  _1058
REMARK  494  A    between atoms: _1058  and  _1059
REMARK  495  A    between atoms: _1058  and  _1061
REMARK  496  A    between atoms: _1061  and  _1062
REMARK  497  A    between atoms: _1065  and  _1066
REMARK  498  A    between atoms: _1066  and  _1067
REMARK  499  A    between atoms: _1066  and  _1069
REMARK  500  A    between atoms: _1072  and  _1073
REMARK  501  A    between atoms: _1073  and  _1074
REMARK  502  A    between atoms: _1073  and  _1076
REMARK  503  A    between atoms: _1076  and  _1077
REMARK  504  A    between atoms: _1077  and  _1078
REMARK  505  A    between atoms: _1078  and  _1079
REMARK  506  A    between atoms: _1081  and  _1082
REMARK  507  A    between atoms: _1082  and  _1083
REMARK  508  A    between atoms: _1082  and  _1085
REMARK  509  A    between atoms: _1085  and  _1086
REMARK  510  A    between atoms: _1091  and  _1092
REMARK  511  A    between atoms: _1092  and  _1093
REMARK  512  A    between atoms: _1092  and  _1095
REMARK  513  A    between atoms: _1095  and  _1096
REMARK  514  A    between atoms: _1099  and  _1100
REMARK  515  A    between atoms: _1100  and  _1101
REMARK  516  A    between atoms: _1100  and  _1103
REMARK  517  A    between atoms: _1103  and  _1104
REMARK  518  A    between atoms: _1107  and  _1108
REMARK  519  A    between atoms: _1108  and  _1111
REMARK  520  A    between atoms: _1111  and  _1112
REMARK  521  A    between atoms: _1125  and  _1127
REMARK  522  A    between atoms: _1134  and  _1135
REMARK  523  A    between atoms: _1134  and  _1137
REMARK  524  A    between atoms: _1137  and  _1138
REMARK  525  A    between atoms: _1138  and  _1139
REMARK  526  A    between atoms: _1142  and  _1143
REMARK  527  A    between atoms: _1143  and  _1144
REMARK  528  A    between atoms: _1143  and  _1146
REMARK  529  A    between atoms: _1146  and  _1147
REMARK  530  A    between atoms: _1154  and  _1155
REMARK  531  A    between atoms: _1155  and  _1156
REMARK  532  A    between atoms: _1159  and  _1160
REMARK  533  A    between atoms: _1160  and  _1161
REMARK  534  A    between atoms: _1160  and  _1163
REMARK  535  A    between atoms: _1163  and  _1164
REMARK  536  A    between atoms: _1173  and  _1174
REMARK  537  A    between atoms: _1174  and  _1175
REMARK  538  A    between atoms: _1174  and  _1177
REMARK  539  A    between atoms: _1177  and  _1178
REMARK  540  A    between atoms: _1178  and  _1179
REMARK  541  A    between atoms: _1182  and  _1183
REMARK  542  A    between atoms: _1183  and  _1184
REMARK  543  A    between atoms: _1183  and  _1186
REMARK  544  A    between atoms: _1188  and  _1189
REMARK  545  A    between atoms: _1189  and  _1190
REMARK  546  A    between atoms: _1189  and  _1192
REMARK  547  A    between atoms: _1194  and  _1195
REMARK  548  A    between atoms: _1195  and  _1196
REMARK  549  A    between atoms: _1199  and  _1200
REMARK  550  A    between atoms: _1200  and  _1201
REMARK  551  A    between atoms: _1203  and  _1204
REMARK  552  A    between atoms: _1204  and  _1205
REMARK  553  A    between atoms: _1207  and  _1208
REMARK  554  A    between atoms: _1208  and  _1209
REMARK  555  A    between atoms: _1208  and  _1211
REMARK  556  A    between atoms: _1213  and  _1214
REMARK  557  A    between atoms: _1214  and  _1215
REMARK  558  A    between atoms: _1214  and  _1217
REMARK  559  A    between atoms: _1217  and  _1218
REMARK  560  A    between atoms: _1224  and  _1225
REMARK  561  A    between atoms: _1225  and  _1226
REMARK  562  A    between atoms: _1225  and  _1228
REMARK  563  A    between atoms: _1231  and  _1232
REMARK  564  A    between atoms: _1232  and  _1233
REMARK  565  A    between atoms: _1232  and  _1235
REMARK  566  A    between atoms: _1238  and  _1239
REMARK  567  A    between atoms: _1239  and  _1240
REMARK  568  A    between atoms: _1239  and  _1242
REMARK  569  A    between atoms: _1242  and  _1243
REMARK  570  A    between atoms: _1243  and  _1244
REMARK  571  A    between atoms: _1244  and  _1245
REMARK  572  A    between atoms: _1249  and  _1250
REMARK  573  A    between atoms: _1250  and  _1251
REMARK  574  A    between atoms: _1250  and  _1253
REMARK  575  A    between atoms: _1256  and  _1257
REMARK  576  A    between atoms: _1257  and  _1258
REMARK  577  A    between atoms: _1257  and  _1260
REMARK  578  A    between atoms: _1260  and  _1261
REMARK  579  A    between atoms: _1264  and  _1265
REMARK  580  A    between atoms: _1265  and  _1266
REMARK  581  A    between atoms: _1265  and  _1268
REMARK  582  A    between atoms: _1271  and  _1272
REMARK  583  A    between atoms: _1272  and  _1273
REMARK  584  A    between atoms: _1275  and  _1276
REMARK  585  A    between atoms: _1276  and  _1277
REMARK  586  A    between atoms: _1276  and  _1279
REMARK  587  A    between atoms: _1279  and  _1280
REMARK  588  A    between atoms: _1280  and  _1281
REMARK  589  A    between atoms: _1285  and  _1286
REMARK  590  A    between atoms: _1291  and  _1293
REMARK  591  A    between atoms: _1298  and  _1299
REMARK  592  A    between atoms: _1299  and  _1301
REMARK  593  A    between atoms: _1300  and  _1301
REMARK  594  A    between atoms: _1304  and  _1305
REMARK  595  A    between atoms: _1305  and  _1306
REMARK  596  A    between atoms: _1308  and  _1309
REMARK  597  A    between atoms: _1309  and  _1310
REMARK  598  A    between atoms: _1309  and  _1312
REMARK  599  A    between atoms: _1312  and  _1313
REMARK  600  A    between atoms: _1313  and  _1314
REMARK  601  A    between atoms: _1314  and  _1315
REMARK  602  A    between atoms: _1319  and  _1320
REMARK  603  A    between atoms: _1320  and  _1321
REMARK  604  A    between atoms: _1323  and  _1324
REMARK  605  A    between atoms: _1324  and  _1325
REMARK  606  A    between atoms: _1324  and  _1327
REMARK  607  A    between atoms: _1330  and  _1331
REMARK  608  A    between atoms: _1331  and  _1332
REMARK  609  A    between atoms: _1331  and  _1334
REMARK  610  A    between atoms: _1334  and  _1335
REMARK  611  A    between atoms: _1335  and  _1336
REMARK  612  A    between atoms: _1336  and  _1337
REMARK  613  A    between atoms: _1339  and  _1340
REMARK  614  A    between atoms: _1340  and  _1341
REMARK  615  A    between atoms: _1340  and  _1343
REMARK  616  A    between atoms: _1346  and  _1347
REMARK  617  A    between atoms: _1347  and  _1348
REMARK  618  A    between atoms: _1347  and  _1350
REMARK  619  A    between atoms: _1350  and  _1351
REMARK  620  A    between atoms: _1354  and  _1355
REMARK  621  A    between atoms: _1355  and  _1356
REMARK  622  A    between atoms: _1355  and  _1358
REMARK  623  A    between atoms: _1358  and  _1359
REMARK  624  A    between atoms: _1362  and  _1363
REMARK  625  A    between atoms: _1363  and  _1364
REMARK  626  A    between atoms: _1363  and  _1366
REMARK  627  A    between atoms: _1366  and  _1367
REMARK  628  A    between atoms: _1372  and  _1373
REMARK  629  A    between atoms: _1373  and  _1374
REMARK  630  A    between atoms: _1373  and  _1376
REMARK  631  A    between atoms: _1376  and  _1377
REMARK  632  A    between atoms: _1380  and  _1381
REMARK  633  A    between atoms: _1381  and  _1382
REMARK  634  A    between atoms: _1381  and  _1384
REMARK  635  A    between atoms: _1384  and  _1385
REMARK  636  A    between atoms: _1385  and  _1386
REMARK  637  A    between atoms: _1386  and  _1387
REMARK  638  A    between atoms: _1389  and  _1390
REMARK  639  A    between atoms: _1390  and  _1391
REMARK  640  A    between atoms: _1390  and  _1393
REMARK  641  A    between atoms: _1393  and  _1394
REMARK  642  A    between atoms: _1394  and  _1395
REMARK  643  A    between atoms: _1398  and  _1399
REMARK  644  A    between atoms: _1399  and  _1400
REMARK  645  A    between atoms: _1399  and  _1402
REMARK  646  A    between atoms: _1402  and  _1403
REMARK  647  A    between atoms: _1406  and  _1407
REMARK  648  A    between atoms: _1407  and  _1408
REMARK  649  A    between atoms: _1407  and  _1410
REMARK  650  A    between atoms: _1410  and  _1411
REMARK  651  A    between atoms: _1411  and  _1412
REMARK  652  A    between atoms: _1415  and  _1416
REMARK  653  A    between atoms: _1416  and  _1417
REMARK  654  A    between atoms: _1416  and  _1419
REMARK  655  A    between atoms: _1422  and  _1423
REMARK  656  A    between atoms: _1423  and  _1424
REMARK  657  A    between atoms: _1423  and  _1426
REMARK  658  A    between atoms: _1426  and  _1427
REMARK  659  A    between atoms: _1427  and  _1428
REMARK  660  A    between atoms: _1431  and  _1432
REMARK  661  A    between atoms: _1432  and  _1433
REMARK  662  A    between atoms: _1432  and  _1435
REMARK  663  A    between atoms: _1435  and  _1436
REMARK  664  A    between atoms: _1443  and  _1444
REMARK  665  A    between atoms: _1444  and  _1445
REMARK  666  A    between atoms: _1444  and  _1447
REMARK  667  A    between atoms: _1447  and  _1448
REMARK  668  A    between atoms: _1451  and  _1452
REMARK  669  A    between atoms: _1452  and  _1453
REMARK  670  A    between atoms: _1452  and  _1455
REMARK  671  A    between atoms: _1455  and  _1456
REMARK  672  A    between atoms: _1456  and  _1457
REMARK  673  A    between atoms: _1460  and  _1461
REMARK  674  A    between atoms: _1461  and  _1462
REMARK  675  A    between atoms: _1461  and  _1464
REMARK  676  A    between atoms: _1464  and  _1465
REMARK  677  A    between atoms: _1465  and  _1466
REMARK  678  A    between atoms: _1469  and  _1470
REMARK  679  A    between atoms: _1470  and  _1471
REMARK  680  A    between atoms: _1470  and  _1473
REMARK  681  A    between atoms: _1473  and  _1474
REMARK  682  A    between atoms: _1474  and  _1475
REMARK  683  A    between atoms: _1475  and  _1476
REMARK  684  A    between atoms: _1480  and  _1481
REMARK  685  A    between atoms: _1481  and  _1482
REMARK  686  A    between atoms: _1481  and  _1484
REMARK  687  A    between atoms: _1484  and  _1485
REMARK  688  A    between atoms: _1485  and  _1486
REMARK  689  A    between atoms: _1486  and  _1487
REMARK  690  A    between atoms: _1491  and  _1492
REMARK  691  A    between atoms: _1492  and  _1493
REMARK  692  A    between atoms: _1492  and  _1495
REMARK  693  A    between atoms: _1495  and  _1496
REMARK  694  A    between atoms: _1499  and  _1500
REMARK  695  A    between atoms: _1500  and  _1501
REMARK  696  A    between atoms: _1500  and  _1503
REMARK  697  A    between atoms: _1503  and  _1504
REMARK  698  A    between atoms: _1504  and  _1505
REMARK  699  A    between atoms: _1505  and  _1506
REMARK  700  A    between atoms: _1508  and  _1509
REMARK  701  A    between atoms: _1509  and  _1510
REMARK  702  A    between atoms: _1509  and  _1512
REMARK  703  A    between atoms: _1512  and  _1513
REMARK  704  A    between atoms: _1513  and  _1514
REMARK  705  A    between atoms: _1517  and  _1518
REMARK  706  A    between atoms: _1518  and  _1519
REMARK  707  A    between atoms: _1518  and  _1521
REMARK  708  A    between atoms: _1521  and  _1522
REMARK  709  A    between atoms: _1525  and  _1526
REMARK  710  A    between atoms: _1526  and  _1527
REMARK  711  A    between atoms: _1526  and  _1529
REMARK  712  A    between atoms: _1532  and  _1533
REMARK  713  A    between atoms: _1533  and  _1534
REMARK  714  A    between atoms: _1533  and  _1536
REMARK  715  A    between atoms: _1536  and  _1537
REMARK  716  A    between atoms: _1537  and  _1538
REMARK  717  A    between atoms: _1538  and  _1539
REMARK  718  A    between atoms: _1541  and  _1542
REMARK  719  A    between atoms: _1542  and  _1543
REMARK  720  A    between atoms: _1542  and  _1545
REMARK  721  A    between atoms: _1545  and  _1546
REMARK  722  A    between atoms: _1546  and  _1547
REMARK  723  A    between atoms: _1547  and  _1548
REMARK  724  A    between atoms: _1550  and  _1551
REMARK  725  A    between atoms: _1551  and  _1552
REMARK  726  A    between atoms: _1551  and  _1554
REMARK  727  A    between atoms: _1554  and  _1555
REMARK  728  A    between atoms: _1560  and  _1561
REMARK  729  A    between atoms: _1561  and  _1562
REMARK  730  A    between atoms: _1561  and  _1564
REMARK  731  A    between atoms: _1566  and  _1567
REMARK  732  A    between atoms: _1567  and  _1568
REMARK  733  A    between atoms: _1567  and  _1570
REMARK  734  A    between atoms: _1570  and  _1571
REMARK  735  A    between atoms: _1571  and  _1572
REMARK  736  A    between atoms: _1575  and  _1576
REMARK  737  A    between atoms: _1576  and  _1577
REMARK  738  A    between atoms: _1576  and  _1579
REMARK  739  A    between atoms: _1579  and  _1580
REMARK  740  A    between atoms: _1586  and  _1587
REMARK  741  A    between atoms: _1587  and  _1588
REMARK  742  A    between atoms: _1587  and  _1590
REMARK  743  A    between atoms: _1590  and  _1591
REMARK  744  A    between atoms: _1594  and  _1595
REMARK  745  A    between atoms: _1595  and  _1596
REMARK  746  A    between atoms: _1598  and  _1599
REMARK  747  A    between atoms: _1599  and  _1600
REMARK  748  A    between atoms: _1599  and  _1602
REMARK  749  A    between atoms: _1602  and  _1603
REMARK  750  A    between atoms: _1611  and  _1612
REMARK  751  A    between atoms: _1617  and  _1618
REMARK  752  A    between atoms: _1618  and  _1619
REMARK  753  A    between atoms: _1618  and  _1621
REMARK  754  A    between atoms: _1621  and  _1622
REMARK  755  A    between atoms: _1625  and  _1626
REMARK  756  A    between atoms: _1626  and  _1627
REMARK  757  A    between atoms: _1626  and  _1629
REMARK  758  A    between atoms: _1632  and  _1633
REMARK  759  A    between atoms: _1633  and  _1634
REMARK  760  A    between atoms: _1633  and  _1636
REMARK  761  A    between atoms: _1636  and  _1637
REMARK  762  A    between atoms: _1640  and  _1641
REMARK  763  A    between atoms: _1641  and  _1642
REMARK  764  A    between atoms: _1641  and  _1644
REMARK  765  A    between atoms: _1644  and  _1645
REMARK  766  A    between atoms: _1651  and  _1652
REMARK  767  A    between atoms: _1652  and  _1653
REMARK  768  A    between atoms: _1652  and  _1655
REMARK  769  A    between atoms: _1658  and  _1659
REMARK  770  A    between atoms: _1659  and  _1660
REMARK  771  A    between atoms: _1659  and  _1662
REMARK  772  A    between atoms: _1662  and  _1663
REMARK  773  A    between atoms: _1663  and  _1664
REMARK  774  A    between atoms: _1667  and  _1668
REMARK  775  A    between atoms: _1668  and  _1669
REMARK  776  A    between atoms: _1668  and  _1671
REMARK  777  A    between atoms: _1671  and  _1672
REMARK  778  A    between atoms: _1672  and  _1673
REMARK  779  A    between atoms: _1673  and  _1674
REMARK                            x       y       z     vdW  Elec       q    Type
REMARK                         _______ _______ _______ _____ _____    ______ ____
ROOT
ATOM      1  N   UNL     1       6.649  37.952  40.814  0.00  0.00    +0.000 NA
ENDROOT
TORSDOF 0
REMARK  Name = /Users/mlugowska/PhD/ML_residence_time_prediction/protein_files/5NYH_protein.pdb
REMARK  779 active torsions:
REMARK  status: ('A' for Active; 'I' for Inactive)
REMARK    1  A    between atoms: _2  and  _3
REMARK    2  A    between atoms: _2  and  _5
REMARK    3  A    between atoms: _5  and  _6
REMARK    4  A    between atoms: _6  and  _7
REMARK    5  A    between atoms: _10  and  _11
REMARK    6  A    between atoms: _11  and  _12
REMARK    7  A    between atoms: _11  and  _14
REMARK    8  A    between atoms: _17  and  _18
REMARK    9  A    between atoms: _18  and  _19
REMARK   10  A    between atoms: _18  and  _21
REMARK   11  A    between atoms: _21  and  _22
REMARK   12  A    between atoms: _22  and  _23
REMARK   13  A    between atoms: _26  and  _27
REMARK   14  A    between atoms: _27  and  _28
REMARK   15  A    between atoms: _27  and  _30
REMARK   16  A    between atoms: _33  and  _34
REMARK   17  A    between atoms: _34  and  _35
REMARK   18  A    between atoms: _34  and  _37
REMARK   19  A    between atoms: _37  and  _38
REMARK   20  A    between atoms: _44  and  _45
REMARK   21  A    between atoms: _45  and  _46
REMARK   22  A    between atoms: _49  and  _50
REMARK   23  A    between atoms: _50  and  _51
REMARK   24  A    between atoms: _50  and  _53
REMARK   25  A    between atoms: _53  and  _54
REMARK   26  A    between atoms: _60  and  _61
REMARK   27  A    between atoms: _61  and  _62
REMARK   28  A    between atoms: _61  and  _64
REMARK   29  A    between atoms: _64  and  _65
REMARK   30  A    between atoms: _65  and  _66
REMARK   31  A    between atoms: _69  and  _70
REMARK   32  A    between atoms: _70  and  _71
REMARK   33  A    between atoms: _74  and  _75
REMARK   34  A    between atoms: _75  and  _76
REMARK   35  A    between atoms: _75  and  _78
REMARK   36  A    between atoms: _78  and  _79
REMARK   37  A    between atoms: _79  and  _80
REMARK   38  A    between atoms: _83  and  _84
REMARK   39  A    between atoms: _84  and  _85
REMARK   40  A    between atoms: _84  and  _87
REMARK   41  A    between atoms: _87  and  _88
REMARK   42  A    between atoms: _91  and  _92
REMARK   43  A    between atoms: _92  and  _93
REMARK   44  A    between atoms: _96  and  _97
REMARK   45  A    between atoms: _97  and  _98
REMARK   46  A    between atoms: _97  and  _100
REMARK   47  A    between atoms: _100  and  _101
REMARK   48  A    between atoms: _101  and  _102
REMARK   49  A    between atoms: _105  and  _106
REMARK   50  A    between atoms: _106  and  _107
REMARK   51  A    between atoms: _106  and  _109
REMARK   52  A    between atoms: _109  and  _110
REMARK   53  A    between atoms: _113  and  _114
REMARK   54  A    between atoms: _114  and  _115
REMARK   55  A    between atoms: _114  and  _117
REMARK   56  A    between atoms: _117  and  _118
REMARK   57  A    between atoms: _118  and  _119
REMARK   58  A    between atoms: _121  and  _122
REMARK   59  A    between atoms: _122  and  _123
REMARK   60  A    between atoms: _122  and  _125
REMARK   61  A    between atoms: _127  and  _128
REMARK   62  A    between atoms: _128  and  _129
REMARK   63  A    between atoms: _128  and  _131
REMARK   64  A    between atoms: _131  and  _132
REMARK   65  A    between atoms: _135  and  _136
REMARK   66  A    between atoms: _136  and  _137
REMARK   67  A    between atoms: _136  and  _139
REMARK   68  A    between atoms: _139  and  _140
REMARK   69  A    between atoms: _143  and  _144
REMARK   70  A    between atoms: _144  and  _145
REMARK   71  A    between atoms: _144  and  _147
REMARK   72  A    between atoms: _147  and  _148
REMARK   73  A    between atoms: _151  and  _152
REMARK   74  A    between atoms: _152  and  _153
REMARK   75  A    between atoms: _152  and  _155
REMARK   76  A    between atoms: _155  and  _156
REMARK   77  A    between atoms: _159  and  _160
REMARK   78  A    between atoms: _160  and  _161
REMARK   79  A    between atoms: _160  and  _163
REMARK   80  A    between atoms: _166  and  _167
REMARK   81  A    between atoms: _167  and  _168
REMARK   82  A    between atoms: _167  and  _170
REMARK   83  A    between atoms: _170  and  _171
REMARK   84  A    between atoms: _177  and  _178
REMARK   85  A    between atoms: _178  and  _179
REMARK   86  A    between atoms: _178  and  _181
REMARK   87  A    between atoms: _181  and  _182
REMARK   88  A    between atoms: _189  and  _190
REMARK   89  A    between atoms: _190  and  _191
REMARK   90  A    between atoms: _190  and  _193
REMARK   91  A    between atoms: _195  and  _196
REMARK   92  A    between atoms: _196  and  _197
REMARK   93  A    between atoms: _196  and  _199
REMARK   94  A    between atoms: _199  and  _200
REMARK   95  A    between atoms: _203  and  _204
REMARK   96  A    between atoms: _204  and  _205
REMARK   97  A    between atoms: _204  and  _207
REMARK   98  A    between atoms: _207  and  _208
REMARK   99  A    between atoms: _208  and  _209
REMARK  100  A    between atoms: _209  and  _210
REMARK  101  A    between atoms: _212  and  _213
REMARK  102  A    between atoms: _213  and  _214
REMARK  103  A    between atoms: _213  and  _216
REMARK  104  A    between atoms: _216  and  _217
REMARK  105  A    between atoms: _217  and  _218
REMARK  106  A    between atoms: _221  and  _222
REMARK  107  A    between atoms: _222  and  _223
REMARK  108  A    between atoms: _222  and  _225
REMARK  109  A    between atoms: _225  and  _226
REMARK  110  A    between atoms: _229  and  _230
REMARK  111  A    between atoms: _230  and  _231
REMARK  112  A    between atoms: _230  and  _233
REMARK  113  A    between atoms: _233  and  _234
REMARK  114  A    between atoms: _240  and  _241
REMARK  115  A    between atoms: _241  and  _242
REMARK  116  A    between atoms: _241  and  _244
REMARK  117  A    between atoms: _244  and  _245
REMARK  118  A    between atoms: _248  and  _249
REMARK  119  A    between atoms: _249  and  _250
REMARK  120  A    between atoms: _249  and  _252
REMARK  121  A    between atoms: _252  and  _253
REMARK  122  A    between atoms: _253  and  _254
REMARK  123  A    between atoms: _254  and  _255
REMARK  124  A    between atoms: _259  and  _260
REMARK  125  A    between atoms: _260  and  _261
REMARK  126  A    between atoms: _260  and  _263
REMARK  127  A    between atoms: _263  and  _264
REMARK  128  A    between atoms: _264  and  _265
REMARK  129  A    between atoms: _268  and  _269
REMARK  130  A    between atoms: _269  and  _270
REMARK  131  A    between atoms: _269  and  _272
REMARK  132  A    between atoms: _272  and  _273
REMARK  133  A    between atoms: _276  and  _277
REMARK  134  A    between atoms: _277  and  _278
REMARK  135  A    between atoms: _277  and  _280
REMARK  136  A    between atoms: _280  and  _281
REMARK  137  A    between atoms: _284  and  _285
REMARK  138  A    between atoms: _285  and  _286
REMARK  139  A    between atoms: _285  and  _288
REMARK  140  A    between atoms: _290  and  _291
REMARK  141  A    between atoms: _291  and  _292
REMARK  142  A    between atoms: _291  and  _294
REMARK  143  A    between atoms: _294  and  _295
REMARK  144  A    between atoms: _298  and  _299
REMARK  145  A    between atoms: _299  and  _300
REMARK  146  A    between atoms: _299  and  _302
REMARK  147  A    between atoms: _304  and  _305
REMARK  148  A    between atoms: _305  and  _306
REMARK  149  A    between atoms: _305  and  _308
REMARK  150  A    between atoms: _310  and  _311
REMARK  151  A    between atoms: _311  and  _312
REMARK  152  A    between atoms: _311  and  _314
REMARK  153  A    between atoms: _314  and  _315
REMARK  154  A    between atoms: _318  and  _319
REMARK  155  A    between atoms: _319  and  _320
REMARK  156  A    between atoms: _323  and  _324
REMARK  157  A    between atoms: _324  and  _325
REMARK  158  A    between atoms: _324  and  _327
REMARK  159  A    between atoms: _327  and  _328
REMARK  160  A    between atoms: _331  and  _332
REMARK  161  A    between atoms: _332  and  _333
REMARK  162  A    between atoms: _332  and  _335
REMARK  163  A    between atoms: _335  and  _336
REMARK  164  A    between atoms: _339  and  _340
REMARK  165  A    between atoms: _340  and  _341
REMARK  166  A    between atoms: _340  and  _343
REMARK  167  A    between atoms: _343  and  _344
REMARK  168  A    between atoms: _344  and  _345
REMARK  169  A    between atoms: _345  and  _346
REMARK  170  A    between atoms: _348  and  _349
REMARK  171  A    between atoms: _349  and  _350
REMARK  172  A    between atoms: _349  and  _352
REMARK  173  A    between atoms: _352  and  _353
REMARK  174  A    between atoms: _356  and  _357
REMARK  175  A    between atoms: _357  and  _358
REMARK  176  A    between atoms: _357  and  _360
REMARK  177  A    between atoms: _360  and  _361
REMARK  178  A    between atoms: _361  and  _362
REMARK  179  A    between atoms: _362  and  _363
REMARK  180  A    between atoms: _367  and  _368
REMARK  181  A    between atoms: _368  and  _369
REMARK  182  A    between atoms: _368  and  _371
REMARK  183  A    between atoms: _371  and  _372
REMARK  184  A    between atoms: _379  and  _380
REMARK  185  A    between atoms: _380  and  _381
REMARK  186  A    between atoms: _380  and  _383
REMARK  187  A    between atoms: _383  and  _384
REMARK  188  A    between atoms: _384  and  _385
REMARK  189  A    between atoms: _388  and  _389
REMARK  190  A    between atoms: _389  and  _390
REMARK  191  A    between atoms: _389  and  _392
REMARK  192  A    between atoms: _394  and  _395
REMARK  193  A    between atoms: _395  and  _396
REMARK  194  A    between atoms: _395  and  _398
REMARK  195  A    between atoms: _398  and  _399
REMARK  196  A    between atoms: _402  and  _403
REMARK  197  A    between atoms: _403  and  _404
REMARK  198  A    between atoms: _403  and  _406
REMARK  199  A    between atoms: _409  and  _410
REMARK  200  A    between atoms: _410  and  _411
REMARK  201  A    between atoms: _410  and  _413
REMARK  202  A    between atoms: _413  and  _414
REMARK  203  A    between atoms: _418  and  _419
REMARK  204  A    between atoms: _424  and  _425
REMARK  205  A    between atoms: _425  and  _426
REMARK  206  A    between atoms: _425  and  _428
REMARK  207  A    between atoms: _430  and  _431
REMARK  208  A    between atoms: _431  and  _432
REMARK  209  A    between atoms: _431  and  _434
REMARK  210  A    between atoms: _434  and  _435
REMARK  211  A    between atoms: _435  and  _436
REMARK  212  A    between atoms: _436  and  _437
REMARK  213  A    between atoms: _439  and  _440
REMARK  214  A    between atoms: _440  and  _441
REMARK  215  A    between atoms: _440  and  _443
REMARK  216  A    between atoms: _443  and  _444
REMARK  217  A    between atoms: _447  and  _448
REMARK  218  A    between atoms: _448  and  _449
REMARK  219  A    between atoms: _448  and  _451
REMARK  220  A    between atoms: _451  and  _452
REMARK  221  A    between atoms: _455  and  _456
REMARK  222  A    between atoms: _456  and  _457
REMARK  223  A    between atoms: _456  and  _459
REMARK  224  A    between atoms: _461  and  _462
REMARK  225  A    between atoms: _462  and  _463
REMARK  226  A    between atoms: _465  and  _466
REMARK  227  A    between atoms: _466  and  _467
REMARK  228  A    between atoms: _466  and  _469
REMARK  229  A    between atoms: _469  and  _470
REMARK  230  A    between atoms: _470  and  _471
REMARK  231  A    between atoms: _471  and  _472
REMARK  232  A    between atoms: _474  and  _475
REMARK  233  A    between atoms: _475  and  _476
REMARK  234  A    between atoms: _475  and  _478
REMARK  235  A    between atoms: _478  and  _479
REMARK  236  A    between atoms: _479  and  _480
REMARK  237  A    between atoms: _483  and  _484
REMARK  238  A    between atoms: _484  and  _485
REMARK  239  A    between atoms: _484  and  _487
REMARK  240  A    between atoms: _487  and  _488
REMARK  241  A    between atoms: _491  and  _492
REMARK  242  A    between atoms: _492  and  _493
REMARK  243  A    between atoms: _492  and  _495
REMARK  244  A    between atoms: _495  and  _496
REMARK  245  A    between atoms: _501  and  _502
REMARK  246  A    between atoms: _502  and  _503
REMARK  247  A    between atoms: _502  and  _505
REMARK  248  A    between atoms: _505  and  _506
REMARK  249  A    between atoms: _509  and  _510
REMARK  250  A    between atoms: _510  and  _511
REMARK  251  A    between atoms: _510  and  _513
REMARK  252  A    between atoms: _513  and  _514
REMARK  253  A    between atoms: _517  and  _518
REMARK  254  A    between atoms: _518  and  _519
REMARK  255  A    between atoms: _518  and  _521
REMARK  256  A    between atoms: _521  and  _522
REMARK  257  A    between atoms: _525  and  _526
REMARK  258  A    between atoms: _526  and  _527
REMARK  259  A    between atoms: _526  and  _529
REMARK  260  A    between atoms: _529  and  _530
REMARK  261  A    between atoms: _534  and  _535
REMARK  262  A    between atoms: _540  and  _541
REMARK  263  A    between atoms: _541  and  _542
REMARK  264  A    between atoms: _541  and  _544
REMARK  265  A    between atoms: _544  and  _545
REMARK  266  A    between atoms: _548  and  _549
REMARK  267  A    between atoms: _549  and  _552
REMARK  268  A    between atoms: _552  and  _553
REMARK  269  A    between atoms: _553  and  _554
REMARK  270  A    between atoms: _554  and  _555
REMARK  271  A    between atoms: _568  and  _569
REMARK  272  A    between atoms: _576  and  _577
REMARK  273  A    between atoms: _576  and  _579
REMARK  274  A    between atoms: _579  and  _580
REMARK  275  A    between atoms: _583  and  _584
REMARK  276  A    between atoms: _584  and  _585
REMARK  277  A    between atoms: _584  and  _587
REMARK  278  A    between atoms: _587  and  _588
REMARK  279  A    between atoms: _588  and  _589
REMARK  280  A    between atoms: _589  and  _590
REMARK  281  A    between atoms: _594  and  _595
REMARK  282  A    between atoms: _595  and  _596
REMARK  283  A    between atoms: _595  and  _598
REMARK  284  A    between atoms: _601  and  _602
REMARK  285  A    between atoms: _602  and  _603
REMARK  286  A    between atoms: _602  and  _605
REMARK  287  A    between atoms: _605  and  _606
REMARK  288  A    between atoms: _609  and  _610
REMARK  289  A    between atoms: _610  and  _611
REMARK  290  A    between atoms: _610  and  _613
REMARK  291  A    between atoms: _616  and  _617
REMARK  292  A    between atoms: _617  and  _618
REMARK  293  A    between atoms: _617  and  _620
REMARK  294  A    between atoms: _620  and  _621
REMARK  295  A    between atoms: _624  and  _625
REMARK  296  A    between atoms: _625  and  _626
REMARK  297  A    between atoms: _625  and  _628
REMARK  298  A    between atoms: _631  and  _632
REMARK  299  A    between atoms: _632  and  _633
REMARK  300  A    between atoms: _632  and  _635
REMARK  301  A    between atoms: _635  and  _636
REMARK  302  A    between atoms: _639  and  _640
REMARK  303  A    between atoms: _640  and  _641
REMARK  304  A    between atoms: _640  and  _643
REMARK  305  A    between atoms: _646  and  _647
REMARK  306  A    between atoms: _647  and  _648
REMARK  307  A    between atoms: _650  and  _651
REMARK  308  A    between atoms: _651  and  _652
REMARK  309  A    between atoms: _651  and  _654
REMARK  310  A    between atoms: _654  and  _655
REMARK  311  A    between atoms: _658  and  _659
REMARK  312  A    between atoms: _659  and  _660
REMARK  313  A    between atoms: _662  and  _663
REMARK  314  A    between atoms: _663  and  _664
REMARK  315  A    between atoms: _663  and  _666
REMARK  316  A    between atoms: _666  and  _667
REMARK  317  A    between atoms: _667  and  _668
REMARK  318  A    between atoms: _670  and  _671
REMARK  319  A    between atoms: _671  and  _672
REMARK  320  A    between atoms: _671  and  _674
REMARK  321  A    between atoms: _677  and  _678
REMARK  322  A    between atoms: _678  and  _679
REMARK  323  A    between atoms: _678  and  _681
REMARK  324  A    between atoms: _681  and  _682
REMARK  325  A    between atoms: _682  and  _683
REMARK  326  A    between atoms: _683  and  _684
REMARK  327  A    between atoms: _686  and  _687
REMARK  328  A    between atoms: _687  and  _688
REMARK  329  A    between atoms: _691  and  _692
REMARK  330  A    between atoms: _692  and  _693
REMARK  331  A    between atoms: _692  and  _695
REMARK  332  A    between atoms: _695  and  _696
REMARK  333  A    between atoms: _699  and  _700
REMARK  334  A    between atoms: _700  and  _701
REMARK  335  A    between atoms: _700  and  _703
REMARK  336  A    between atoms: _703  and  _704
REMARK  337  A    between atoms: _707  and  _708
REMARK  338  A    between atoms: _708  and  _709
REMARK  339  A    between atoms: _708  and  _711
REMARK  340  A    between atoms: _711  and  _712
REMARK  341  A    between atoms: _715  and  _716
REMARK  342  A    between atoms: _716  and  _717
REMARK  343  A    between atoms: _716  and  _719
REMARK  344  A    between atoms: _719  and  _720
REMARK  345  A    between atoms: _723  and  _724
REMARK  346  A    between atoms: _724  and  _725
REMARK  347  A    between atoms: _724  and  _727
REMARK  348  A    between atoms: _727  and  _728
REMARK  349  A    between atoms: _731  and  _732
REMARK  350  A    between atoms: _732  and  _733
REMARK  351  A    between atoms: _732  and  _735
REMARK  352  A    between atoms: _735  and  _736
REMARK  353  A    between atoms: _739  and  _740
REMARK  354  A    between atoms: _740  and  _741
REMARK  355  A    between atoms: _743  and  _744
REMARK  356  A    between atoms: _744  and  _745
REMARK  357  A    between atoms: _744  and  _747
REMARK  358  A    between atoms: _750  and  _751
REMARK  359  A    between atoms: _751  and  _752
REMARK  360  A    between atoms: _751  and  _754
REMARK  361  A    between atoms: _754  and  _755
REMARK  362  A    between atoms: _758  and  _759
REMARK  363  A    between atoms: _759  and  _760
REMARK  364  A    between atoms: _763  and  _764
REMARK  365  A    between atoms: _764  and  _765
REMARK  366  A    between atoms: _764  and  _767
REMARK  367  A    between atoms: _767  and  _768
REMARK  368  A    between atoms: _768  and  _769
REMARK  369  A    between atoms: _769  and  _770
REMARK  370  A    between atoms: _772  and  _773
REMARK  371  A    between atoms: _773  and  _774
REMARK  372  A    between atoms: _773  and  _776
REMARK  373  A    between atoms: _778  and  _779
REMARK  374  A    between atoms: _779  and  _780
REMARK  375  A    between atoms: _782  and  _783
REMARK  376  A    between atoms: _783  and  _784
REMARK  377  A    between atoms: _783  and  _786
REMARK  378  A    between atoms: _789  and  _790
REMARK  379  A    between atoms: _790  and  _791
REMARK  380  A    between atoms: _790  and  _793
REMARK  381  A    between atoms: _793  and  _794
REMARK  382  A    between atoms: _794  and  _795
REMARK  383  A    between atoms: _795  and  _796
REMARK  384  A    between atoms: _798  and  _799
REMARK  385  A    between atoms: _799  and  _800
REMARK  386  A    between atoms: _803  and  _804
REMARK  387  A    between atoms: _804  and  _805
REMARK  388  A    between atoms: _804  and  _807
REMARK  389  A    between atoms: _807  and  _808
REMARK  390  A    between atoms: _814  and  _815
REMARK  391  A    between atoms: _815  and  _816
REMARK  392  A    between atoms: _815  and  _818
REMARK  393  A    between atoms: _818  and  _819
REMARK  394  A    between atoms: _819  and  _820
REMARK  395  A    between atoms: _822  and  _823
REMARK  396  A    between atoms: _823  and  _824
REMARK  397  A    between atoms: _823  and  _826
REMARK  398  A    between atoms: _826  and  _827
REMARK  399  A    between atoms: _827  and  _828
REMARK  400  A    between atoms: _831  and  _832
REMARK  401  A    between atoms: _832  and  _833
REMARK  402  A    between atoms: _836  and  _837
REMARK  403  A    between atoms: _837  and  _838
REMARK  404  A    between atoms: _837  and  _840
REMARK  405  A    between atoms: _840  and  _841
REMARK  406  A    between atoms: _844  and  _845
REMARK  407  A    between atoms: _845  and  _846
REMARK  408  A    between atoms: _845  and  _848
REMARK  409  A    between atoms: _848  and  _849
REMARK  410  A    between atoms: _849  and  _850
REMARK  411  A    between atoms: _853  and  _854
REMARK  412  A    between atoms: _854  and  _855
REMARK  413  A    between atoms: _858  and  _859
REMARK  414  A    between atoms: _859  and  _860
REMARK  415  A    between atoms: _862  and  _863
REMARK  416  A    between atoms: _863  and  _864
REMARK  417  A    between atoms: _867  and  _868
REMARK  418  A    between atoms: _868  and  _869
REMARK  419  A    between atoms: _868  and  _871
REMARK  420  A    between atoms: _871  and  _872
REMARK  421  A    between atoms: _875  and  _876
REMARK  422  A    between atoms: _876  and  _877
REMARK  423  A    between atoms: _876  and  _879
REMARK  424  A    between atoms: _879  and  _880
REMARK  425  A    between atoms: _883  and  _884
REMARK  426  A    between atoms: _884  and  _887
REMARK  427  A    between atoms: _906  and  _907
REMARK  428  A    between atoms: _906  and  _909
REMARK  429  A    between atoms: _909  and  _910
REMARK  430  A    between atoms: _913  and  _914
REMARK  431  A    between atoms: _914  and  _915
REMARK  432  A    between atoms: _917  and  _918
REMARK  433  A    between atoms: _918  and  _919
REMARK  434  A    between atoms: _918  and  _921
REMARK  435  A    between atoms: _921  and  _922
REMARK  436  A    between atoms: _922  and  _923
REMARK  437  A    between atoms: _926  and  _927
REMARK  438  A    between atoms: _927  and  _928
REMARK  439  A    between atoms: _927  and  _930
REMARK  440  A    between atoms: _930  and  _931
REMARK  441  A    between atoms: _937  and  _938
REMARK  442  A    between atoms: _938  and  _939
REMARK  443  A    between atoms: _941  and  _942
REMARK  444  A    between atoms: _942  and  _943
REMARK  445  A    between atoms: _942  and  _945
REMARK  446  A    between atoms: _948  and  _949
REMARK  447  A    between atoms: _949  and  _950
REMARK  448  A    between atoms: _952  and  _953
REMARK  449  A    between atoms: _953  and  _954
REMARK  450  A    between atoms: _953  and  _956
REMARK  451  A    between atoms: _956  and  _957
REMARK  452  A    between atoms: _963  and  _964
REMARK  453  A    between atoms: _964  and  _965
REMARK  454  A    between atoms: _964  and  _967
REMARK  455  A    between atoms: _967  and  _968
REMARK  456  A    between atoms: _975  and  _976
REMARK  457  A    between atoms: _976  and  _977
REMARK  458  A    between atoms: _976  and  _979
REMARK  459  A    between atoms: _981  and  _982
REMARK  460  A    between atoms: _982  and  _983
REMARK  461  A    between atoms: _986  and  _987
REMARK  462  A    between atoms: _987  and  _988
REMARK  463  A    between atoms: _987  and  _990
REMARK  464  A    between atoms: _990  and  _991
REMARK  465  A    between atoms: _998  and  _999
REMARK  466  A    between atoms: _999  and  _1000
REMARK  467  A    between atoms: _999  and  _1002
REMARK  468  A    between atoms: _1002  and  _1003
REMARK  469  A    between atoms: _1006  and  _1007
REMARK  470  A    between atoms: _1007  and  _1008
REMARK  471  A    between atoms: _1007  and  _1010
REMARK  472  A    between atoms: _1013  and  _1014
REMARK  473  A    between atoms: _1014  and  _1015
REMARK  474  A    between atoms: _1018  and  _1019
REMARK  475  A    between atoms: _1019  and  _1020
REMARK  476  A    between atoms: _1019  and  _1022
REMARK  477  A    between atoms: _1023  and  _1024
REMARK  478  A    between atoms: _1027  and  _1028
REMARK  479  A    between atoms: _1028  and  _1029
REMARK  480  A    between atoms: _1028  and  _1031
REMARK  481  A    between atoms: _1031  and  _1032
REMARK  482  A    between atoms: _1032  and  _1033
REMARK  483  A    between atoms: _1033  and  _1034
REMARK  484  A    between atoms: _1036  and  _1037
REMARK  485  A    between atoms: _1037  and  _1038
REMARK  486  A    between atoms: _1037  and  _1040
REMARK  487  A    between atoms: _1043  and  _1044
REMARK  488  A    between atoms: _1044  and  _1045
REMARK  489  A    between atoms: _1044  and  _1047
REMARK  490  A    between atoms: _1050  and  _1051
REMARK  491  A    between atoms: _1051  and  _1052
REMARK  492  A    between atoms: _1051  and  _1054
REMARK  493  A    between atoms: _1057  and  _1058
REMARK  494  A    between atoms: _1058  and  _1059
REMARK  495  A    between atoms: _1058  and  _1061
REMARK  496  A    between atoms: _1061  and  _1062
REMARK  497  A    between atoms: _1065  and  _1066
REMARK  498  A    between atoms: _1066  and  _1067
REMARK  499  A    between atoms: _1066  and  _1069
REMARK  500  A    between atoms: _1072  and  _1073
REMARK  501  A    between atoms: _1073  and  _1074
REMARK  502  A    between atoms: _1073  and  _1076
REMARK  503  A    between atoms: _1076  and  _1077
REMARK  504  A    between atoms: _1077  and  _1078
REMARK  505  A    between atoms: _1078  and  _1079
REMARK  506  A    between atoms: _1081  and  _1082
REMARK  507  A    between atoms: _1082  and  _1083
REMARK  508  A    between atoms: _1082  and  _1085
REMARK  509  A    between atoms: _1085  and  _1086
REMARK  510  A    between atoms: _1091  and  _1092
REMARK  511  A    between atoms: _1092  and  _1093
REMARK  512  A    between atoms: _1092  and  _1095
REMARK  513  A    between atoms: _1095  and  _1096
REMARK  514  A    between atoms: _1099  and  _1100
REMARK  515  A    between atoms: _1100  and  _1101
REMARK  516  A    between atoms: _1100  and  _1103
REMARK  517  A    between atoms: _1103  and  _1104
REMARK  518  A    between atoms: _1107  and  _1108
REMARK  519  A    between atoms: _1108  and  _1111
REMARK  520  A    between atoms: _1111  and  _1112
REMARK  521  A    between atoms: _1125  and  _1127
REMARK  522  A    between atoms: _1134  and  _1135
REMARK  523  A    between atoms: _1134  and  _1137
REMARK  524  A    between atoms: _1137  and  _1138
REMARK  525  A    between atoms: _1138  and  _1139
REMARK  526  A    between atoms: _1142  and  _1143
REMARK  527  A    between atoms: _1143  and  _1144
REMARK  528  A    between atoms: _1143  and  _1146
REMARK  529  A    between atoms: _1146  and  _1147
REMARK  530  A    between atoms: _1154  and  _1155
REMARK  531  A    between atoms: _1155  and  _1156
REMARK  532  A    between atoms: _1159  and  _1160
REMARK  533  A    between atoms: _1160  and  _1161
REMARK  534  A    between atoms: _1160  and  _1163
REMARK  535  A    between atoms: _1163  and  _1164
REMARK  536  A    between atoms: _1173  and  _1174
REMARK  537  A    between atoms: _1174  and  _1175
REMARK  538  A    between atoms: _1174  and  _1177
REMARK  539  A    between atoms: _1177  and  _1178
REMARK  540  A    between atoms: _1178  and  _1179
REMARK  541  A    between atoms: _1182  and  _1183
REMARK  542  A    between atoms: _1183  and  _1184
REMARK  543  A    between atoms: _1183  and  _1186
REMARK  544  A    between atoms: _1188  and  _1189
REMARK  545  A    between atoms: _1189  and  _1190
REMARK  546  A    between atoms: _1189  and  _1192
REMARK  547  A    between atoms: _1194  and  _1195
REMARK  548  A    between atoms: _1195  and  _1196
REMARK  549  A    between atoms: _1199  and  _1200
REMARK  550  A    between atoms: _1200  and  _1201
REMARK  551  A    between atoms: _1203  and  _1204
REMARK  552  A    between atoms: _1204  and  _1205
REMARK  553  A    between atoms: _1207  and  _1208
REMARK  554  A    between atoms: _1208  and  _1209
REMARK  555  A    between atoms: _1208  and  _1211
REMARK  556  A    between atoms: _1213  and  _1214
REMARK  557  A    between atoms: _1214  and  _1215
REMARK  558  A    between atoms: _1214  and  _1217
REMARK  559  A    between atoms: _1217  and  _1218
REMARK  560  A    between atoms: _1224  and  _1225
REMARK  561  A    between atoms: _1225  and  _1226
REMARK  562  A    between atoms: _1225  and  _1228
REMARK  563  A    between atoms: _1231  and  _1232
REMARK  564  A    between atoms: _1232  and  _1233
REMARK  565  A    between atoms: _1232  and  _1235
REMARK  566  A    between atoms: _1238  and  _1239
REMARK  567  A    between atoms: _1239  and  _1240
REMARK  568  A    between atoms: _1239  and  _1242
REMARK  569  A    between atoms: _1242  and  _1243
REMARK  570  A    between atoms: _1243  and  _1244
REMARK  571  A    between atoms: _1244  and  _1245
REMARK  572  A    between atoms: _1249  and  _1250
REMARK  573  A    between atoms: _1250  and  _1251
REMARK  574  A    between atoms: _1250  and  _1253
REMARK  575  A    between atoms: _1256  and  _1257
REMARK  576  A    between atoms: _1257  and  _1258
REMARK  577  A    between atoms: _1257  and  _1260
REMARK  578  A    between atoms: _1260  and  _1261
REMARK  579  A    between atoms: _1264  and  _1265
REMARK  580  A    between atoms: _1265  and  _1266
REMARK  581  A    between atoms: _1265  and  _1268
REMARK  582  A    between atoms: _1271  and  _1272
REMARK  583  A    between atoms: _1272  and  _1273
REMARK  584  A    between atoms: _1275  and  _1276
REMARK  585  A    between atoms: _1276  and  _1277
REMARK  586  A    between atoms: _1276  and  _1279
REMARK  587  A    between atoms: _1279  and  _1280
REMARK  588  A    between atoms: _1280  and  _1281
REMARK  589  A    between atoms: _1285  and  _1286
REMARK  590  A    between atoms: _1291  and  _1293
REMARK  591  A    between atoms: _1298  and  _1299
REMARK  592  A    between atoms: _1299  and  _1301
REMARK  593  A    between atoms: _1300  and  _1301
REMARK  594  A    between atoms: _1304  and  _1305
REMARK  595  A    between atoms: _1305  and  _1306
REMARK  596  A    between atoms: _1308  and  _1309
REMARK  597  A    between atoms: _1309  and  _1310
REMARK  598  A    between atoms: _1309  and  _1312
REMARK  599  A    between atoms: _1312  and  _1313
REMARK  600  A    between atoms: _1313  and  _1314
REMARK  601  A    between atoms: _1314  and  _1315
REMARK  602  A    between atoms: _1319  and  _1320
REMARK  603  A    between atoms: _1320  and  _1321
REMARK  604  A    between atoms: _1323  and  _1324
REMARK  605  A    between atoms: _1324  and  _1325
REMARK  606  A    between atoms: _1324  and  _1327
REMARK  607  A    between atoms: _1330  and  _1331
REMARK  608  A    between atoms: _1331  and  _1332
REMARK  609  A    between atoms: _1331  and  _1334
REMARK  610  A    between atoms: _1334  and  _1335
REMARK  611  A    between atoms: _1335  and  _1336
REMARK  612  A    between atoms: _1336  and  _1337
REMARK  613  A    between atoms: _1339  and  _1340
REMARK  614  A    between atoms: _1340  and  _1341
REMARK  615  A    between atoms: _1340  and  _1343
REMARK  616  A    between atoms: _1346  and  _1347
REMARK  617  A    between atoms: _1347  and  _1348
REMARK  618  A    between atoms: _1347  and  _1350
REMARK  619  A    between atoms: _1350  and  _1351
REMARK  620  A    between atoms: _1354  and  _1355
REMARK  621  A    between atoms: _1355  and  _1356
REMARK  622  A    between atoms: _1355  and  _1358
REMARK  623  A    between atoms: _1358  and  _1359
REMARK  624  A    between atoms: _1362  and  _1363
REMARK  625  A    between atoms: _1363  and  _1364
REMARK  626  A    between atoms: _1363  and  _1366
REMARK  627  A    between atoms: _1366  and  _1367
REMARK  628  A    between atoms: _1372  and  _1373
REMARK  629  A    between atoms: _1373  and  _1374
REMARK  630  A    between atoms: _1373  and  _1376
REMARK  631  A    between atoms: _1376  and  _1377
REMARK  632  A    between atoms: _1380  and  _1381
REMARK  633  A    between atoms: _1381  and  _1382
REMARK  634  A    between atoms: _1381  and  _1384
REMARK  635  A    between atoms: _1384  and  _1385
REMARK  636  A    between atoms: _1385  and  _1386
REMARK  637  A    between atoms: _1386  and  _1387
REMARK  638  A    between atoms: _1389  and  _1390
REMARK  639  A    between atoms: _1390  and  _1391
REMARK  640  A    between atoms: _1390  and  _1393
REMARK  641  A    between atoms: _1393  and  _1394
REMARK  642  A    between atoms: _1394  and  _1395
REMARK  643  A    between atoms: _1398  and  _1399
REMARK  644  A    between atoms: _1399  and  _1400
REMARK  645  A    between atoms: _1399  and  _1402
REMARK  646  A    between atoms: _1402  and  _1403
REMARK  647  A    between atoms: _1406  and  _1407
REMARK  648  A    between atoms: _1407  and  _1408
REMARK  649  A    between atoms: _1407  and  _1410
REMARK  650  A    between atoms: _1410  and  _1411
REMARK  651  A    between atoms: _1411  and  _1412
REMARK  652  A    between atoms: _1415  and  _1416
REMARK  653  A    between atoms: _1416  and  _1417
REMARK  654  A    between atoms: _1416  and  _1419
REMARK  655  A    between atoms: _1422  and  _1423
REMARK  656  A    between atoms: _1423  and  _1424
REMARK  657  A    between atoms: _1423  and  _1426
REMARK  658  A    between atoms: _1426  and  _1427
REMARK  659  A    between atoms: _1427  and  _1428
REMARK  660  A    between atoms: _1431  and  _1432
REMARK  661  A    between atoms: _1432  and  _1433
REMARK  662  A    between atoms: _1432  and  _1435
REMARK  663  A    between atoms: _1435  and  _1436
REMARK  664  A    between atoms: _1443  and  _1444
REMARK  665  A    between atoms: _1444  and  _1445
REMARK  666  A    between atoms: _1444  and  _1447
REMARK  667  A    between atoms: _1447  and  _1448
REMARK  668  A    between atoms: _1451  and  _1452
REMARK  669  A    between atoms: _1452  and  _1453
REMARK  670  A    between atoms: _1452  and  _1455
REMARK  671  A    between atoms: _1455  and  _1456
REMARK  672  A    between atoms: _1456  and  _1457
REMARK  673  A    between atoms: _1460  and  _1461
REMARK  674  A    between atoms: _1461  and  _1462
REMARK  675  A    between atoms: _1461  and  _1464
REMARK  676  A    between atoms: _1464  and  _1465
REMARK  677  A    between atoms: _1465  and  _1466
REMARK  678  A    between atoms: _1469  and  _1470
REMARK  679  A    between atoms: _1470  and  _1471
REMARK  680  A    between atoms: _1470  and  _1473
REMARK  681  A    between atoms: _1473  and  _1474
REMARK  682  A    between atoms: _1474  and  _1475
REMARK  683  A    between atoms: _1475  and  _1476
REMARK  684  A    between atoms: _1480  and  _1481
REMARK  685  A    between atoms: _1481  and  _1482
REMARK  686  A    between atoms: _1481  and  _1484
REMARK  687  A    between atoms: _1484  and  _1485
REMARK  688  A    between atoms: _1485  and  _1486
REMARK  689  A    between atoms: _1486  and  _1487
REMARK  690  A    between atoms: _1491  and  _1492
REMARK  691  A    between atoms: _1492  and  _1493
REMARK  692  A    between atoms: _1492  and  _1495
REMARK  693  A    between atoms: _1495  and  _1496
REMARK  694  A    between atoms: _1499  and  _1500
REMARK  695  A    between atoms: _1500  and  _1501
REMARK  696  A    between atoms: _1500  and  _1503
REMARK  697  A    between atoms: _1503  and  _1504
REMARK  698  A    between atoms: _1504  and  _1505
REMARK  699  A    between atoms: _1505  and  _1506
REMARK  700  A    between atoms: _1508  and  _1509
REMARK  701  A    between atoms: _1509  and  _1510
REMARK  702  A    between atoms: _1509  and  _1512
REMARK  703  A    between atoms: _1512  and  _1513
REMARK  704  A    between atoms: _1513  and  _1514
REMARK  705  A    between atoms: _1517  and  _1518
REMARK  706  A    between atoms: _1518  and  _1519
REMARK  707  A    between atoms: _1518  and  _1521
REMARK  708  A    between atoms: _1521  and  _1522
REMARK  709  A    between atoms: _1525  and  _1526
REMARK  710  A    between atoms: _1526  and  _1527
REMARK  711  A    between atoms: _1526  and  _1529
REMARK  712  A    between atoms: _1532  and  _1533
REMARK  713  A    between atoms: _1533  and  _1534
REMARK  714  A    between atoms: _1533  and  _1536
REMARK  715  A    between atoms: _1536  and  _1537
REMARK  716  A    between atoms: _1537  and  _1538
REMARK  717  A    between atoms: _1538  and  _1539
REMARK  718  A    between atoms: _1541  and  _1542
REMARK  719  A    between atoms: _1542  and  _1543
REMARK  720  A    between atoms: _1542  and  _1545
REMARK  721  A    between atoms: _1545  and  _1546
REMARK  722  A    between atoms: _1546  and  _1547
REMARK  723  A    between atoms: _1547  and  _1548
REMARK  724  A    between atoms: _1550  and  _1551
REMARK  725  A    between atoms: _1551  and  _1552
REMARK  726  A    between atoms: _1551  and  _1554
REMARK  727  A    between atoms: _1554  and  _1555
REMARK  728  A    between atoms: _1560  and  _1561
REMARK  729  A    between atoms: _1561  and  _1562
REMARK  730  A    between atoms: _1561  and  _1564
REMARK  731  A    between atoms: _1566  and  _1567
REMARK  732  A    between atoms: _1567  and  _1568
REMARK  733  A    between atoms: _1567  and  _1570
REMARK  734  A    between atoms: _1570  and  _1571
REMARK  735  A    between atoms: _1571  and  _1572
REMARK  736  A    between atoms: _1575  and  _1576
REMARK  737  A    between atoms: _1576  and  _1577
REMARK  738  A    between atoms: _1576  and  _1579
REMARK  739  A    between atoms: _1579  and  _1580
REMARK  740  A    between atoms: _1586  and  _1587
REMARK  741  A    between atoms: _1587  and  _1588
REMARK  742  A    between atoms: _1587  and  _1590
REMARK  743  A    between atoms: _1590  and  _1591
REMARK  744  A    between atoms: _1594  and  _1595
REMARK  745  A    between atoms: _1595  and  _1596
REMARK  746  A    between atoms: _1598  and  _1599
REMARK  747  A    between atoms: _1599  and  _1600
REMARK  748  A    between atoms: _1599  and  _1602
REMARK  749  A    between atoms: _1602  and  _1603
REMARK  750  A    between atoms: _1611  and  _1612
REMARK  751  A    between atoms: _1617  and  _1618
REMARK  752  A    between atoms: _1618  and  _1619
REMARK  753  A    between atoms: _1618  and  _1621
REMARK  754  A    between atoms: _1621  and  _1622
REMARK  755  A    between atoms: _1625  and  _1626
REMARK  756  A    between atoms: _1626  and  _1627
REMARK  757  A    between atoms: _1626  and  _1629
REMARK  758  A    between atoms: _1632  and  _1633
REMARK  759  A    between atoms: _1633  and  _1634
REMARK  760  A    between atoms: _1633  and  _1636
REMARK  761  A    between atoms: _1636  and  _1637
REMARK  762  A    between atoms: _1640  and  _1641
REMARK  763  A    between atoms: _1641  and  _1642
REMARK  764  A    between atoms: _1641  and  _1644
REMARK  765  A    between atoms: _1644  and  _1645
REMARK  766  A    between atoms: _1651  and  _1652
REMARK  767  A    between atoms: _1652  and  _1653
REMARK  768  A    between atoms: _1652  and  _1655
REMARK  769  A    between atoms: _1658  and  _1659
REMARK  770  A    between atoms: _1659  and  _1660
REMARK  771  A    between atoms: _1659  and  _1662
REMARK  772  A    between atoms: _1662  and  _1663
REMARK  773  A    between atoms: _1663  and  _1664
REMARK  774  A    between atoms: _1667  and  _1668
REMARK  775  A    between atoms: _1668  and  _1669
REMARK  776  A    between atoms: _1668  and  _1671
REMARK  777  A    between atoms: _1671  and  _1672
REMARK  778  A    between atoms: _1672  and  _1673
REMARK  779  A    between atoms: _1673  and  _1674
REMARK                            x       y       z     vdW  Elec       q    Type
REMARK                         _______ _______ _______ _____ _____    ______ ____
ROOT
ATOM      1  C   UNL     1       6.794  39.203  40.047  0.00  0.00    +0.000 C 
ENDROOT
TORSDOF 0
REMARK  Name = /Users/mlugowska/PhD/ML_residence_time_prediction/protein_files/5NYH_protein.pdb
REMARK  779 active torsions:
REMARK  status: ('A' for Active; 'I' for Inactive)
REMARK    1  A    between atoms: _2  and  _3
REMARK    2  A    between atoms: _2  and  _5
REMARK    3  A    between atoms: _5  and  _6
REMARK    4  A    between atoms: _6  and  _7
REMARK    5  A    between atoms: _10  and  _11
REMARK    6  A    between atoms: _11  and  _12
REMARK    7  A    between atoms: _11  and  _14
REMARK    8  A    between atoms: _17  and  _18
REMARK    9  A    between atoms: _18  and  _19
REMARK   10  A    between atoms: _18  and  _21
REMARK   11  A    between atoms: _21  and  _22
REMARK   12  A    between atoms: _22  and  _23
REMARK   13  A    between atoms: _26  and  _27
REMARK   14  A    between atoms: _27  and  _28
REMARK   15  A    between atoms: _27  and  _30
REMARK   16  A    between atoms: _33  and  _34
REMARK   17  A    between atoms: _34  and  _35
REMARK   18  A    between atoms: _34  and  _37
REMARK   19  A    between atoms: _37  and  _38
REMARK   20  A    between atoms: _44  and  _45
REMARK   21  A    between atoms: _45  and  _46
REMARK   22  A    between atoms: _49  and  _50
REMARK   23  A    between atoms: _50  and  _51
REMARK   24  A    between atoms: _50  and  _53
REMARK   25  A    between atoms: _53  and  _54
REMARK   26  A    between atoms: _60  and  _61
REMARK   27  A    between atoms: _61  and  _62
REMARK   28  A    between atoms: _61  and  _64
REMARK   29  A    between atoms: _64  and  _65
REMARK   30  A    between atoms: _65  and  _66
REMARK   31  A    between atoms: _69  and  _70
REMARK   32  A    between atoms: _70  and  _71
REMARK   33  A    between atoms: _74  and  _75
REMARK   34  A    between atoms: _75  and  _76
REMARK   35  A    between atoms: _75  and  _78
REMARK   36  A    between atoms: _78  and  _79
REMARK   37  A    between atoms: _79  and  _80
REMARK   38  A    between atoms: _83  and  _84
REMARK   39  A    between atoms: _84  and  _85
REMARK   40  A    between atoms: _84  and  _87
REMARK   41  A    between atoms: _87  and  _88
REMARK   42  A    between atoms: _91  and  _92
REMARK   43  A    between atoms: _92  and  _93
REMARK   44  A    between atoms: _96  and  _97
REMARK   45  A    between atoms: _97  and  _98
REMARK   46  A    between atoms: _97  and  _100
REMARK   47  A    between atoms: _100  and  _101
REMARK   48  A    between atoms: _101  and  _102
REMARK   49  A    between atoms: _105  and  _106
REMARK   50  A    between atoms: _106  and  _107
REMARK   51  A    between atoms: _106  and  _109
REMARK   52  A    between atoms: _109  and  _110
REMARK   53  A    between atoms: _113  and  _114
REMARK   54  A    between atoms: _114  and  _115
REMARK   55  A    between atoms: _114  and  _117
REMARK   56  A    between atoms: _117  and  _118
REMARK   57  A    between atoms: _118  and  _119
REMARK   58  A    between atoms: _121  and  _122
REMARK   59  A    between atoms: _122  and  _123
REMARK   60  A    between atoms: _122  and  _125
REMARK   61  A    between atoms: _127  and  _128
REMARK   62  A    between atoms: _128  and  _129
REMARK   63  A    between atoms: _128  and  _131
REMARK   64  A    between atoms: _131  and  _132
REMARK   65  A    between atoms: _135  and  _136
REMARK   66  A    between atoms: _136  and  _137
REMARK   67  A    between atoms: _136  and  _139
REMARK   68  A    between atoms: _139  and  _140
REMARK   69  A    between atoms: _143  and  _144
REMARK   70  A    between atoms: _144  and  _145
REMARK   71  A    between atoms: _144  and  _147
REMARK   72  A    between atoms: _147  and  _148
REMARK   73  A    between atoms: _151  and  _152
REMARK   74  A    between atoms: _152  and  _153
REMARK   75  A    between atoms: _152  and  _155
REMARK   76  A    between atoms: _155  and  _156
REMARK   77  A    between atoms: _159  and  _160
REMARK   78  A    between atoms: _160  and  _161
REMARK   79  A    between atoms: _160  and  _163
REMARK   80  A    between atoms: _166  and  _167
REMARK   81  A    between atoms: _167  and  _168
REMARK   82  A    between atoms: _167  and  _170
REMARK   83  A    between atoms: _170  and  _171
REMARK   84  A    between atoms: _177  and  _178
REMARK   85  A    between atoms: _178  and  _179
REMARK   86  A    between atoms: _178  and  _181
REMARK   87  A    between atoms: _181  and  _182
REMARK   88  A    between atoms: _189  and  _190
REMARK   89  A    between atoms: _190  and  _191
REMARK   90  A    between atoms: _190  and  _193
REMARK   91  A    between atoms: _195  and  _196
REMARK   92  A    between atoms: _196  and  _197
REMARK   93  A    between atoms: _196  and  _199
REMARK   94  A    between atoms: _199  and  _200
REMARK   95  A    between atoms: _203  and  _204
REMARK   96  A    between atoms: _204  and  _205
REMARK   97  A    between atoms: _204  and  _207
REMARK   98  A    between atoms: _207  and  _208
REMARK   99  A    between atoms: _208  and  _209
REMARK  100  A    between atoms: _209  and  _210
REMARK  101  A    between atoms: _212  and  _213
REMARK  102  A    between atoms: _213  and  _214
REMARK  103  A    between atoms: _213  and  _216
REMARK  104  A    between atoms: _216  and  _217
REMARK  105  A    between atoms: _217  and  _218
REMARK  106  A    between atoms: _221  and  _222
REMARK  107  A    between atoms: _222  and  _223
REMARK  108  A    between atoms: _222  and  _225
REMARK  109  A    between atoms: _225  and  _226
REMARK  110  A    between atoms: _229  and  _230
REMARK  111  A    between atoms: _230  and  _231
REMARK  112  A    between atoms: _230  and  _233
REMARK  113  A    between atoms: _233  and  _234
REMARK  114  A    between atoms: _240  and  _241
REMARK  115  A    between atoms: _241  and  _242
REMARK  116  A    between atoms: _241  and  _244
REMARK  117  A    between atoms: _244  and  _245
REMARK  118  A    between atoms: _248  and  _249
REMARK  119  A    between atoms: _249  and  _250
REMARK  120  A    between atoms: _249  and  _252
REMARK  121  A    between atoms: _252  and  _253
REMARK  122  A    between atoms: _253  and  _254
REMARK  123  A    between atoms: _254  and  _255
REMARK  124  A    between atoms: _259  and  _260
REMARK  125  A    between atoms: _260  and  _261
REMARK  126  A    between atoms: _260  and  _263
REMARK  127  A    between atoms: _263  and  _264
REMARK  128  A    between atoms: _264  and  _265
REMARK  129  A    between atoms: _268  and  _269
REMARK  130  A    between atoms: _269  and  _270
REMARK  131  A    between atoms: _269  and  _272
REMARK  132  A    between atoms: _272  and  _273
REMARK  133  A    between atoms: _276  and  _277
REMARK  134  A    between atoms: _277  and  _278
REMARK  135  A    between atoms: _277  and  _280
REMARK  136  A    between atoms: _280  and  _281
REMARK  137  A    between atoms: _284  and  _285
REMARK  138  A    between atoms: _285  and  _286
REMARK  139  A    between atoms: _285  and  _288
REMARK  140  A    between atoms: _290  and  _291
REMARK  141  A    between atoms: _291  and  _292
REMARK  142  A    between atoms: _291  and  _294
REMARK  143  A    between atoms: _294  and  _295
REMARK  144  A    between atoms: _298  and  _299
REMARK  145  A    between atoms: _299  and  _300
REMARK  146  A    between atoms: _299  and  _302
REMARK  147  A    between atoms: _304  and  _305
REMARK  148  A    between atoms: _305  and  _306
REMARK  149  A    between atoms: _305  and  _308
REMARK  150  A    between atoms: _310  and  _311
REMARK  151  A    between atoms: _311  and  _312
REMARK  152  A    between atoms: _311  and  _314
REMARK  153  A    between atoms: _314  and  _315
REMARK  154  A    between atoms: _318  and  _319
REMARK  155  A    between atoms: _319  and  _320
REMARK  156  A    between atoms: _323  and  _324
REMARK  157  A    between atoms: _324  and  _325
REMARK  158  A    between atoms: _324  and  _327
REMARK  159  A    between atoms: _327  and  _328
REMARK  160  A    between atoms: _331  and  _332
REMARK  161  A    between atoms: _332  and  _333
REMARK  162  A    between atoms: _332  and  _335
REMARK  163  A    between atoms: _335  and  _336
REMARK  164  A    between atoms: _339  and  _340
REMARK  165  A    between atoms: _340  and  _341
REMARK  166  A    between atoms: _340  and  _343
REMARK  167  A    between atoms: _343  and  _344
REMARK  168  A    between atoms: _344  and  _345
REMARK  169  A    between atoms: _345  and  _346
REMARK  170  A    between atoms: _348  and  _349
REMARK  171  A    between atoms: _349  and  _350
REMARK  172  A    between atoms: _349  and  _352
REMARK  173  A    between atoms: _352  and  _353
REMARK  174  A    between atoms: _356  and  _357
REMARK  175  A    between atoms: _357  and  _358
REMARK  176  A    between atoms: _357  and  _360
REMARK  177  A    between atoms: _360  and  _361
REMARK  178  A    between atoms: _361  and  _362
REMARK  179  A    between atoms: _362  and  _363
REMARK  180  A    between atoms: _367  and  _368
REMARK  181  A    between atoms: _368  and  _369
REMARK  182  A    between atoms: _368  and  _371
REMARK  183  A    between atoms: _371  and  _372
REMARK  184  A    between atoms: _379  and  _380
REMARK  185  A    between atoms: _380  and  _381
REMARK  186  A    between atoms: _380  and  _383
REMARK  187  A    between atoms: _383  and  _384
REMARK  188  A    between atoms: _384  and  _385
REMARK  189  A    between atoms: _388  and  _389
REMARK  190  A    between atoms: _389  and  _390
REMARK  191  A    between atoms: _389  and  _392
REMARK  192  A    between atoms: _394  and  _395
REMARK  193  A    between atoms: _395  and  _396
REMARK  194  A    between atoms: _395  and  _398
REMARK  195  A    between atoms: _398  and  _399
REMARK  196  A    between atoms: _402  and  _403
REMARK  197  A    between atoms: _403  and  _404
REMARK  198  A    between atoms: _403  and  _406
REMARK  199  A    between atoms: _409  and  _410
REMARK  200  A    between atoms: _410  and  _411
REMARK  201  A    between atoms: _410  and  _413
REMARK  202  A    between atoms: _413  and  _414
REMARK  203  A    between atoms: _418  and  _419
REMARK  204  A    between atoms: _424  and  _425
REMARK  205  A    between atoms: _425  and  _426
REMARK  206  A    between atoms: _425  and  _428
REMARK  207  A    between atoms: _430  and  _431
REMARK  208  A    between atoms: _431  and  _432
REMARK  209  A    between atoms: _431  and  _434
REMARK  210  A    between atoms: _434  and  _435
REMARK  211  A    between atoms: _435  and  _436
REMARK  212  A    between atoms: _436  and  _437
REMARK  213  A    between atoms: _439  and  _440
REMARK  214  A    between atoms: _440  and  _441
REMARK  215  A    between atoms: _440  and  _443
REMARK  216  A    between atoms: _443  and  _444
REMARK  217  A    between atoms: _447  and  _448
REMARK  218  A    between atoms: _448  and  _449
REMARK  219  A    between atoms: _448  and  _451
REMARK  220  A    between atoms: _451  and  _452
REMARK  221  A    between atoms: _455  and  _456
REMARK  222  A    between atoms: _456  and  _457
REMARK  223  A    between atoms: _456  and  _459
REMARK  224  A    between atoms: _461  and  _462
REMARK  225  A    between atoms: _462  and  _463
REMARK  226  A    between atoms: _465  and  _466
REMARK  227  A    between atoms: _466  and  _467
REMARK  228  A    between atoms: _466  and  _469
REMARK  229  A    between atoms: _469  and  _470
REMARK  230  A    between atoms: _470  and  _471
REMARK  231  A    between atoms: _471  and  _472
REMARK  232  A    between atoms: _474  and  _475
REMARK  233  A    between atoms: _475  and  _476
REMARK  234  A    between atoms: _475  and  _478
REMARK  235  A    between atoms: _478  and  _479
REMARK  236  A    between atoms: _479  and  _480
REMARK  237  A    between atoms: _483  and  _484
REMARK  238  A    between atoms: _484  and  _485
REMARK  239  A    between atoms: _484  and  _487
REMARK  240  A    between atoms: _487  and  _488
REMARK  241  A    between atoms: _491  and  _492
REMARK  242  A    between atoms: _492  and  _493
REMARK  243  A    between atoms: _492  and  _495
REMARK  244  A    between atoms: _495  and  _496
REMARK  245  A    between atoms: _501  and  _502
REMARK  246  A    between atoms: _502  and  _503
REMARK  247  A    between atoms: _502  and  _505
REMARK  248  A    between atoms: _505  and  _506
REMARK  249  A    between atoms: _509  and  _510
REMARK  250  A    between atoms: _510  and  _511
REMARK  251  A    between atoms: _510  and  _513
REMARK  252  A    between atoms: _513  and  _514
REMARK  253  A    between atoms: _517  and  _518
REMARK  254  A    between atoms: _518  and  _519
REMARK  255  A    between atoms: _518  and  _521
REMARK  256  A    between atoms: _521  and  _522
REMARK  257  A    between atoms: _525  and  _526
REMARK  258  A    between atoms: _526  and  _527
REMARK  259  A    between atoms: _526  and  _529
REMARK  260  A    between atoms: _529  and  _530
REMARK  261  A    between atoms: _534  and  _535
REMARK  262  A    between atoms: _540  and  _541
REMARK  263  A    between atoms: _541  and  _542
REMARK  264  A    between atoms: _541  and  _544
REMARK  265  A    between atoms: _544  and  _545
REMARK  266  A    between atoms: _548  and  _549
REMARK  267  A    between atoms: _549  and  _552
REMARK  268  A    between atoms: _552  and  _553
REMARK  269  A    between atoms: _553  and  _554
REMARK  270  A    between atoms: _554  and  _555
REMARK  271  A    between atoms: _568  and  _569
REMARK  272  A    between atoms: _576  and  _577
REMARK  273  A    between atoms: _576  and  _579
REMARK  274  A    between atoms: _579  and  _580
REMARK  275  A    between atoms: _583  and  _584
REMARK  276  A    between atoms: _584  and  _585
REMARK  277  A    between atoms: _584  and  _587
REMARK  278  A    between atoms: _587  and  _588
REMARK  279  A    between atoms: _588  and  _589
REMARK  280  A    between atoms: _589  and  _590
REMARK  281  A    between atoms: _594  and  _595
REMARK  282  A    between atoms: _595  and  _596
REMARK  283  A    between atoms: _595  and  _598
REMARK  284  A    between atoms: _601  and  _602
REMARK  285  A    between atoms: _602  and  _603
REMARK  286  A    between atoms: _602  and  _605
REMARK  287  A    between atoms: _605  and  _606
REMARK  288  A    between atoms: _609  and  _610
REMARK  289  A    between atoms: _610  and  _611
REMARK  290  A    between atoms: _610  and  _613
REMARK  291  A    between atoms: _616  and  _617
REMARK  292  A    between atoms: _617  and  _618
REMARK  293  A    between atoms: _617  and  _620
REMARK  294  A    between atoms: _620  and  _621
REMARK  295  A    between atoms: _624  and  _625
REMARK  296  A    between atoms: _625  and  _626
REMARK  297  A    between atoms: _625  and  _628
REMARK  298  A    between atoms: _631  and  _632
REMARK  299  A    between atoms: _632  and  _633
REMARK  300  A    between atoms: _632  and  _635
REMARK  301  A    between atoms: _635  and  _636
REMARK  302  A    between atoms: _639  and  _640
REMARK  303  A    between atoms: _640  and  _641
REMARK  304  A    between atoms: _640  and  _643
REMARK  305  A    between atoms: _646  and  _647
REMARK  306  A    between atoms: _647  and  _648
REMARK  307  A    between atoms: _650  and  _651
REMARK  308  A    between atoms: _651  and  _652
REMARK  309  A    between atoms: _651  and  _654
REMARK  310  A    between atoms: _654  and  _655
REMARK  311  A    between atoms: _658  and  _659
REMARK  312  A    between atoms: _659  and  _660
REMARK  313  A    between atoms: _662  and  _663
REMARK  314  A    between atoms: _663  and  _664
REMARK  315  A    between atoms: _663  and  _666
REMARK  316  A    between atoms: _666  and  _667
REMARK  317  A    between atoms: _667  and  _668
REMARK  318  A    between atoms: _670  and  _671
REMARK  319  A    between atoms: _671  and  _672
REMARK  320  A    between atoms: _671  and  _674
REMARK  321  A    between atoms: _677  and  _678
REMARK  322  A    between atoms: _678  and  _679
REMARK  323  A    between atoms: _678  and  _681
REMARK  324  A    between atoms: _681  and  _682
REMARK  325  A    between atoms: _682  and  _683
REMARK  326  A    between atoms: _683  and  _684
REMARK  327  A    between atoms: _686  and  _687
REMARK  328  A    between atoms: _687  and  _688
REMARK  329  A    between atoms: _691  and  _692
REMARK  330  A    between atoms: _692  and  _693
REMARK  331  A    between atoms: _692  and  _695
REMARK  332  A    between atoms: _695  and  _696
REMARK  333  A    between atoms: _699  and  _700
REMARK  334  A    between atoms: _700  and  _701
REMARK  335  A    between atoms: _700  and  _703
REMARK  336  A    between atoms: _703  and  _704
REMARK  337  A    between atoms: _707  and  _708
REMARK  338  A    between atoms: _708  and  _709
REMARK  339  A    between atoms: _708  and  _711
REMARK  340  A    between atoms: _711  and  _712
REMARK  341  A    between atoms: _715  and  _716
REMARK  342  A    between atoms: _716  and  _717
REMARK  343  A    between atoms: _716  and  _719
REMARK  344  A    between atoms: _719  and  _720
REMARK  345  A    between atoms: _723  and  _724
REMARK  346  A    between atoms: _724  and  _725
REMARK  347  A    between atoms: _724  and  _727
REMARK  348  A    between atoms: _727  and  _728
REMARK  349  A    between atoms: _731  and  _732
REMARK  350  A    between atoms: _732  and  _733
REMARK  351  A    between atoms: _732  and  _735
REMARK  352  A    between atoms: _735  and  _736
REMARK  353  A    between atoms: _739  and  _740
REMARK  354  A    between atoms: _740  and  _741
REMARK  355  A    between atoms: _743  and  _744
REMARK  356  A    between atoms: _744  and  _745
REMARK  357  A    between atoms: _744  and  _747
REMARK  358  A    between atoms: _750  and  _751
REMARK  359  A    between atoms: _751  and  _752
REMARK  360  A    between atoms: _751  and  _754
REMARK  361  A    between atoms: _754  and  _755
REMARK  362  A    between atoms: _758  and  _759
REMARK  363  A    between atoms: _759  and  _760
REMARK  364  A    between atoms: _763  and  _764
REMARK  365  A    between atoms: _764  and  _765
REMARK  366  A    between atoms: _764  and  _767
REMARK  367  A    between atoms: _767  and  _768
REMARK  368  A    between atoms: _768  and  _769
REMARK  369  A    between atoms: _769  and  _770
REMARK  370  A    between atoms: _772  and  _773
REMARK  371  A    between atoms: _773  and  _774
REMARK  372  A    between atoms: _773  and  _776
REMARK  373  A    between atoms: _778  and  _779
REMARK  374  A    between atoms: _779  and  _780
REMARK  375  A    between atoms: _782  and  _783
REMARK  376  A    between atoms: _783  and  _784
REMARK  377  A    between atoms: _783  and  _786
REMARK  378  A    between atoms: _789  and  _790
REMARK  379  A    between atoms: _790  and  _791
REMARK  380  A    between atoms: _790  and  _793
REMARK  381  A    between atoms: _793  and  _794
REMARK  382  A    between atoms: _794  and  _795
REMARK  383  A    between atoms: _795  and  _796
REMARK  384  A    between atoms: _798  and  _799
REMARK  385  A    between atoms: _799  and  _800
REMARK  386  A    between atoms: _803  and  _804
REMARK  387  A    between atoms: _804  and  _805
REMARK  388  A    between atoms: _804  and  _807
REMARK  389  A    between atoms: _807  and  _808
REMARK  390  A    between atoms: _814  and  _815
REMARK  391  A    between atoms: _815  and  _816
REMARK  392  A    between atoms: _815  and  _818
REMARK  393  A    between atoms: _818  and  _819
REMARK  394  A    between atoms: _819  and  _820
REMARK  395  A    between atoms: _822  and  _823
REMARK  396  A    between atoms: _823  and  _824
REMARK  397  A    between atoms: _823  and  _826
REMARK  398  A    between atoms: _826  and  _827
REMARK  399  A    between atoms: _827  and  _828
REMARK  400  A    between atoms: _831  and  _832
REMARK  401  A    between atoms: _832  and  _833
REMARK  402  A    between atoms: _836  and  _837
REMARK  403  A    between atoms: _837  and  _838
REMARK  404  A    between atoms: _837  and  _840
REMARK  405  A    between atoms: _840  and  _841
REMARK  406  A    between atoms: _844  and  _845
REMARK  407  A    between atoms: _845  and  _846
REMARK  408  A    between atoms: _845  and  _848
REMARK  409  A    between atoms: _848  and  _849
REMARK  410  A    between atoms: _849  and  _850
REMARK  411  A    between atoms: _853  and  _854
REMARK  412  A    between atoms: _854  and  _855
REMARK  413  A    between atoms: _858  and  _859
REMARK  414  A    between atoms: _859  and  _860
REMARK  415  A    between atoms: _862  and  _863
REMARK  416  A    between atoms: _863  and  _864
REMARK  417  A    between atoms: _867  and  _868
REMARK  418  A    between atoms: _868  and  _869
REMARK  419  A    between atoms: _868  and  _871
REMARK  420  A    between atoms: _871  and  _872
REMARK  421  A    between atoms: _875  and  _876
REMARK  422  A    between atoms: _876  and  _877
REMARK  423  A    between atoms: _876  and  _879
REMARK  424  A    between atoms: _879  and  _880
REMARK  425  A    between atoms: _883  and  _884
REMARK  426  A    between atoms: _884  and  _887
REMARK  427  A    between atoms: _906  and  _907
REMARK  428  A    between atoms: _906  and  _909
REMARK  429  A    between atoms: _909  and  _910
REMARK  430  A    between atoms: _913  and  _914
REMARK  431  A    between atoms: _914  and  _915
REMARK  432  A    between atoms: _917  and  _918
REMARK  433  A    between atoms: _918  and  _919
REMARK  434  A    between atoms: _918  and  _921
REMARK  435  A    between atoms: _921  and  _922
REMARK  436  A    between atoms: _922  and  _923
REMARK  437  A    between atoms: _926  and  _927
REMARK  438  A    between atoms: _927  and  _928
REMARK  439  A    between atoms: _927  and  _930
REMARK  440  A    between atoms: _930  and  _931
REMARK  441  A    between atoms: _937  and  _938
REMARK  442  A    between atoms: _938  and  _939
REMARK  443  A    between atoms: _941  and  _942
REMARK  444  A    between atoms: _942  and  _943
REMARK  445  A    between atoms: _942  and  _945
REMARK  446  A    between atoms: _948  and  _949
REMARK  447  A    between atoms: _949  and  _950
REMARK  448  A    between atoms: _952  and  _953
REMARK  449  A    between atoms: _953  and  _954
REMARK  450  A    between atoms: _953  and  _956
REMARK  451  A    between atoms: _956  and  _957
REMARK  452  A    between atoms: _963  and  _964
REMARK  453  A    between atoms: _964  and  _965
REMARK  454  A    between atoms: _964  and  _967
REMARK  455  A    between atoms: _967  and  _968
REMARK  456  A    between atoms: _975  and  _976
REMARK  457  A    between atoms: _976  and  _977
REMARK  458  A    between atoms: _976  and  _979
REMARK  459  A    between atoms: _981  and  _982
REMARK  460  A    between atoms: _982  and  _983
REMARK  461  A    between atoms: _986  and  _987
REMARK  462  A    between atoms: _987  and  _988
REMARK  463  A    between atoms: _987  and  _990
REMARK  464  A    between atoms: _990  and  _991
REMARK  465  A    between atoms: _998  and  _999
REMARK  466  A    between atoms: _999  and  _1000
REMARK  467  A    between atoms: _999  and  _1002
REMARK  468  A    between atoms: _1002  and  _1003
REMARK  469  A    between atoms: _1006  and  _1007
REMARK  470  A    between atoms: _1007  and  _1008
REMARK  471  A    between atoms: _1007  and  _1010
REMARK  472  A    between atoms: _1013  and  _1014
REMARK  473  A    between atoms: _1014  and  _1015
REMARK  474  A    between atoms: _1018  and  _1019
REMARK  475  A    between atoms: _1019  and  _1020
REMARK  476  A    between atoms: _1019  and  _1022
REMARK  477  A    between atoms: _1023  and  _1024
REMARK  478  A    between atoms: _1027  and  _1028
REMARK  479  A    between atoms: _1028  and  _1029
REMARK  480  A    between atoms: _1028  and  _1031
REMARK  481  A    between atoms: _1031  and  _1032
REMARK  482  A    between atoms: _1032  and  _1033
REMARK  483  A    between atoms: _1033  and  _1034
REMARK  484  A    between atoms: _1036  and  _1037
REMARK  485  A    between atoms: _1037  and  _1038
REMARK  486  A    between atoms: _1037  and  _1040
REMARK  487  A    between atoms: _1043  and  _1044
REMARK  488  A    between atoms: _1044  and  _1045
REMARK  489  A    between atoms: _1044  and  _1047
REMARK  490  A    between atoms: _1050  and  _1051
REMARK  491  A    between atoms: _1051  and  _1052
REMARK  492  A    between atoms: _1051  and  _1054
REMARK  493  A    between atoms: _1057  and  _1058
REMARK  494  A    between atoms: _1058  and  _1059
REMARK  495  A    between atoms: _1058  and  _1061
REMARK  496  A    between atoms: _1061  and  _1062
REMARK  497  A    between atoms: _1065  and  _1066
REMARK  498  A    between atoms: _1066  and  _1067
REMARK  499  A    between atoms: _1066  and  _1069
REMARK  500  A    between atoms: _1072  and  _1073
REMARK  501  A    between atoms: _1073  and  _1074
REMARK  502  A    between atoms: _1073  and  _1076
REMARK  503  A    between atoms: _1076  and  _1077
REMARK  504  A    between atoms: _1077  and  _1078
REMARK  505  A    between atoms: _1078  and  _1079
REMARK  506  A    between atoms: _1081  and  _1082
REMARK  507  A    between atoms: _1082  and  _1083
REMARK  508  A    between atoms: _1082  and  _1085
REMARK  509  A    between atoms: _1085  and  _1086
REMARK  510  A    between atoms: _1091  and  _1092
REMARK  511  A    between atoms: _1092  and  _1093
REMARK  512  A    between atoms: _1092  and  _1095
REMARK  513  A    between atoms: _1095  and  _1096
REMARK  514  A    between atoms: _1099  and  _1100
REMARK  515  A    between atoms: _1100  and  _1101
REMARK  516  A    between atoms: _1100  and  _1103
REMARK  517  A    between atoms: _1103  and  _1104
REMARK  518  A    between atoms: _1107  and  _1108
REMARK  519  A    between atoms: _1108  and  _1111
REMARK  520  A    between atoms: _1111  and  _1112
REMARK  521  A    between atoms: _1125  and  _1127
REMARK  522  A    between atoms: _1134  and  _1135
REMARK  523  A    between atoms: _1134  and  _1137
REMARK  524  A    between atoms: _1137  and  _1138
REMARK  525  A    between atoms: _1138  and  _1139
REMARK  526  A    between atoms: _1142  and  _1143
REMARK  527  A    between atoms: _1143  and  _1144
REMARK  528  A    between atoms: _1143  and  _1146
REMARK  529  A    between atoms: _1146  and  _1147
REMARK  530  A    between atoms: _1154  and  _1155
REMARK  531  A    between atoms: _1155  and  _1156
REMARK  532  A    between atoms: _1159  and  _1160
REMARK  533  A    between atoms: _1160  and  _1161
REMARK  534  A    between atoms: _1160  and  _1163
REMARK  535  A    between atoms: _1163  and  _1164
REMARK  536  A    between atoms: _1173  and  _1174
REMARK  537  A    between atoms: _1174  and  _1175
REMARK  538  A    between atoms: _1174  and  _1177
REMARK  539  A    between atoms: _1177  and  _1178
REMARK  540  A    between atoms: _1178  and  _1179
REMARK  541  A    between atoms: _1182  and  _1183
REMARK  542  A    between atoms: _1183  and  _1184
REMARK  543  A    between atoms: _1183  and  _1186
REMARK  544  A    between atoms: _1188  and  _1189
REMARK  545  A    between atoms: _1189  and  _1190
REMARK  546  A    between atoms: _1189  and  _1192
REMARK  547  A    between atoms: _1194  and  _1195
REMARK  548  A    between atoms: _1195  and  _1196
REMARK  549  A    between atoms: _1199  and  _1200
REMARK  550  A    between atoms: _1200  and  _1201
REMARK  551  A    between atoms: _1203  and  _1204
REMARK  552  A    between atoms: _1204  and  _1205
REMARK  553  A    between atoms: _1207  and  _1208
REMARK  554  A    between atoms: _1208  and  _1209
REMARK  555  A    between atoms: _1208  and  _1211
REMARK  556  A    between atoms: _1213  and  _1214
REMARK  557  A    between atoms: _1214  and  _1215
REMARK  558  A    between atoms: _1214  and  _1217
REMARK  559  A    between atoms: _1217  and  _1218
REMARK  560  A    between atoms: _1224  and  _1225
REMARK  561  A    between atoms: _1225  and  _1226
REMARK  562  A    between atoms: _1225  and  _1228
REMARK  563  A    between atoms: _1231  and  _1232
REMARK  564  A    between atoms: _1232  and  _1233
REMARK  565  A    between atoms: _1232  and  _1235
REMARK  566  A    between atoms: _1238  and  _1239
REMARK  567  A    between atoms: _1239  and  _1240
REMARK  568  A    between atoms: _1239  and  _1242
REMARK  569  A    between atoms: _1242  and  _1243
REMARK  570  A    between atoms: _1243  and  _1244
REMARK  571  A    between atoms: _1244  and  _1245
REMARK  572  A    between atoms: _1249  and  _1250
REMARK  573  A    between atoms: _1250  and  _1251
REMARK  574  A    between atoms: _1250  and  _1253
REMARK  575  A    between atoms: _1256  and  _1257
REMARK  576  A    between atoms: _1257  and  _1258
REMARK  577  A    between atoms: _1257  and  _1260
REMARK  578  A    between atoms: _1260  and  _1261
REMARK  579  A    between atoms: _1264  and  _1265
REMARK  580  A    between atoms: _1265  and  _1266
REMARK  581  A    between atoms: _1265  and  _1268
REMARK  582  A    between atoms: _1271  and  _1272
REMARK  583  A    between atoms: _1272  and  _1273
REMARK  584  A    between atoms: _1275  and  _1276
REMARK  585  A    between atoms: _1276  and  _1277
REMARK  586  A    between atoms: _1276  and  _1279
REMARK  587  A    between atoms: _1279  and  _1280
REMARK  588  A    between atoms: _1280  and  _1281
REMARK  589  A    between atoms: _1285  and  _1286
REMARK  590  A    between atoms: _1291  and  _1293
REMARK  591  A    between atoms: _1298  and  _1299
REMARK  592  A    between atoms: _1299  and  _1301
REMARK  593  A    between atoms: _1300  and  _1301
REMARK  594  A    between atoms: _1304  and  _1305
REMARK  595  A    between atoms: _1305  and  _1306
REMARK  596  A    between atoms: _1308  and  _1309
REMARK  597  A    between atoms: _1309  and  _1310
REMARK  598  A    between atoms: _1309  and  _1312
REMARK  599  A    between atoms: _1312  and  _1313
REMARK  600  A    between atoms: _1313  and  _1314
REMARK  601  A    between atoms: _1314  and  _1315
REMARK  602  A    between atoms: _1319  and  _1320
REMARK  603  A    between atoms: _1320  and  _1321
REMARK  604  A    between atoms: _1323  and  _1324
REMARK  605  A    between atoms: _1324  and  _1325
REMARK  606  A    between atoms: _1324  and  _1327
REMARK  607  A    between atoms: _1330  and  _1331
REMARK  608  A    between atoms: _1331  and  _1332
REMARK  609  A    between atoms: _1331  and  _1334
REMARK  610  A    between atoms: _1334  and  _1335
REMARK  611  A    between atoms: _1335  and  _1336
REMARK  612  A    between atoms: _1336  and  _1337
REMARK  613  A    between atoms: _1339  and  _1340
REMARK  614  A    between atoms: _1340  and  _1341
REMARK  615  A    between atoms: _1340  and  _1343
REMARK  616  A    between atoms: _1346  and  _1347
REMARK  617  A    between atoms: _1347  and  _1348
REMARK  618  A    between atoms: _1347  and  _1350
REMARK  619  A    between atoms: _1350  and  _1351
REMARK  620  A    between atoms: _1354  and  _1355
REMARK  621  A    between atoms: _1355  and  _1356
REMARK  622  A    between atoms: _1355  and  _1358
REMARK  623  A    between atoms: _1358  and  _1359
REMARK  624  A    between atoms: _1362  and  _1363
REMARK  625  A    between atoms: _1363  and  _1364
REMARK  626  A    between atoms: _1363  and  _1366
REMARK  627  A    between atoms: _1366  and  _1367
REMARK  628  A    between atoms: _1372  and  _1373
REMARK  629  A    between atoms: _1373  and  _1374
REMARK  630  A    between atoms: _1373  and  _1376
REMARK  631  A    between atoms: _1376  and  _1377
REMARK  632  A    between atoms: _1380  and  _1381
REMARK  633  A    between atoms: _1381  and  _1382
REMARK  634  A    between atoms: _1381  and  _1384
REMARK  635  A    between atoms: _1384  and  _1385
REMARK  636  A    between atoms: _1385  and  _1386
REMARK  637  A    between atoms: _1386  and  _1387
REMARK  638  A    between atoms: _1389  and  _1390
REMARK  639  A    between atoms: _1390  and  _1391
REMARK  640  A    between atoms: _1390  and  _1393
REMARK  641  A    between atoms: _1393  and  _1394
REMARK  642  A    between atoms: _1394  and  _1395
REMARK  643  A    between atoms: _1398  and  _1399
REMARK  644  A    between atoms: _1399  and  _1400
REMARK  645  A    between atoms: _1399  and  _1402
REMARK  646  A    between atoms: _1402  and  _1403
REMARK  647  A    between atoms: _1406  and  _1407
REMARK  648  A    between atoms: _1407  and  _1408
REMARK  649  A    between atoms: _1407  and  _1410
REMARK  650  A    between atoms: _1410  and  _1411
REMARK  651  A    between atoms: _1411  and  _1412
REMARK  652  A    between atoms: _1415  and  _1416
REMARK  653  A    between atoms: _1416  and  _1417
REMARK  654  A    between atoms: _1416  and  _1419
REMARK  655  A    between atoms: _1422  and  _1423
REMARK  656  A    between atoms: _1423  and  _1424
REMARK  657  A    between atoms: _1423  and  _1426
REMARK  658  A    between atoms: _1426  and  _1427
REMARK  659  A    between atoms: _1427  and  _1428
REMARK  660  A    between atoms: _1431  and  _1432
REMARK  661  A    between atoms: _1432  and  _1433
REMARK  662  A    between atoms: _1432  and  _1435
REMARK  663  A    between atoms: _1435  and  _1436
REMARK  664  A    between atoms: _1443  and  _1444
REMARK  665  A    between atoms: _1444  and  _1445
REMARK  666  A    between atoms: _1444  and  _1447
REMARK  667  A    between atoms: _1447  and  _1448
REMARK  668  A    between atoms: _1451  and  _1452
REMARK  669  A    between atoms: _1452  and  _1453
REMARK  670  A    between atoms: _1452  and  _1455
REMARK  671  A    between atoms: _1455  and  _1456
REMARK  672  A    between atoms: _1456  and  _1457
REMARK  673  A    between atoms: _1460  and  _1461
REMARK  674  A    between atoms: _1461  and  _1462
REMARK  675  A    between atoms: _1461  and  _1464
REMARK  676  A    between atoms: _1464  and  _1465
REMARK  677  A    between atoms: _1465  and  _1466
REMARK  678  A    between atoms: _1469  and  _1470
REMARK  679  A    between atoms: _1470  and  _1471
REMARK  680  A    between atoms: _1470  and  _1473
REMARK  681  A    between atoms: _1473  and  _1474
REMARK  682  A    between atoms: _1474  and  _1475
REMARK  683  A    between atoms: _1475  and  _1476
REMARK  684  A    between atoms: _1480  and  _1481
REMARK  685  A    between atoms: _1481  and  _1482
REMARK  686  A    between atoms: _1481  and  _1484
REMARK  687  A    between atoms: _1484  and  _1485
REMARK  688  A    between atoms: _1485  and  _1486
REMARK  689  A    between atoms: _1486  and  _1487
REMARK  690  A    between atoms: _1491  and  _1492
REMARK  691  A    between atoms: _1492  and  _1493
REMARK  692  A    between atoms: _1492  and  _1495
REMARK  693  A    between atoms: _1495  and  _1496
REMARK  694  A    between atoms: _1499  and  _1500
REMARK  695  A    between atoms: _1500  and  _1501
REMARK  696  A    between atoms: _1500  and  _1503
REMARK  697  A    between atoms: _1503  and  _1504
REMARK  698  A    between atoms: _1504  and  _1505
REMARK  699  A    between atoms: _1505  and  _1506
REMARK  700  A    between atoms: _1508  and  _1509
REMARK  701  A    between atoms: _1509  and  _1510
REMARK  702  A    between atoms: _1509  and  _1512
REMARK  703  A    between atoms: _1512  and  _1513
REMARK  704  A    between atoms: _1513  and  _1514
REMARK  705  A    between atoms: _1517  and  _1518
REMARK  706  A    between atoms: _1518  and  _1519
REMARK  707  A    between atoms: _1518  and  _1521
REMARK  708  A    between atoms: _1521  and  _1522
REMARK  709  A    between atoms: _1525  and  _1526
REMARK  710  A    between atoms: _1526  and  _1527
REMARK  711  A    between atoms: _1526  and  _1529
REMARK  712  A    between atoms: _1532  and  _1533
REMARK  713  A    between atoms: _1533  and  _1534
REMARK  714  A    between atoms: _1533  and  _1536
REMARK  715  A    between atoms: _1536  and  _1537
REMARK  716  A    between atoms: _1537  and  _1538
REMARK  717  A    between atoms: _1538  and  _1539
REMARK  718  A    between atoms: _1541  and  _1542
REMARK  719  A    between atoms: _1542  and  _1543
REMARK  720  A    between atoms: _1542  and  _1545
REMARK  721  A    between atoms: _1545  and  _1546
REMARK  722  A    between atoms: _1546  and  _1547
REMARK  723  A    between atoms: _1547  and  _1548
REMARK  724  A    between atoms: _1550  and  _1551
REMARK  725  A    between atoms: _1551  and  _1552
REMARK  726  A    between atoms: _1551  and  _1554
REMARK  727  A    between atoms: _1554  and  _1555
REMARK  728  A    between atoms: _1560  and  _1561
REMARK  729  A    between atoms: _1561  and  _1562
REMARK  730  A    between atoms: _1561  and  _1564
REMARK  731  A    between atoms: _1566  and  _1567
REMARK  732  A    between atoms: _1567  and  _1568
REMARK  733  A    between atoms: _1567  and  _1570
REMARK  734  A    between atoms: _1570  and  _1571
REMARK  735  A    between atoms: _1571  and  _1572
REMARK  736  A    between atoms: _1575  and  _1576
REMARK  737  A    between atoms: _1576  and  _1577
REMARK  738  A    between atoms: _1576  and  _1579
REMARK  739  A    between atoms: _1579  and  _1580
REMARK  740  A    between atoms: _1586  and  _1587
REMARK  741  A    between atoms: _1587  and  _1588
REMARK  742  A    between atoms: _1587  and  _1590
REMARK  743  A    between atoms: _1590  and  _1591
REMARK  744  A    between atoms: _1594  and  _1595
REMARK  745  A    between atoms: _1595  and  _1596
REMARK  746  A    between atoms: _1598  and  _1599
REMARK  747  A    between atoms: _1599  and  _1600
REMARK  748  A    between atoms: _1599  and  _1602
REMARK  749  A    between atoms: _1602  and  _1603
REMARK  750  A    between atoms: _1611  and  _1612
REMARK  751  A    between atoms: _1617  and  _1618
REMARK  752  A    between atoms: _1618  and  _1619
REMARK  753  A    between atoms: _1618  and  _1621
REMARK  754  A    between atoms: _1621  and  _1622
REMARK  755  A    between atoms: _1625  and  _1626
REMARK  756  A    between atoms: _1626  and  _1627
REMARK  757  A    between atoms: _1626  and  _1629
REMARK  758  A    between atoms: _1632  and  _1633
REMARK  759  A    between atoms: _1633  and  _1634
REMARK  760  A    between atoms: _1633  and  _1636
REMARK  761  A    between atoms: _1636  and  _1637
REMARK  762  A    between atoms: _1640  and  _1641
REMARK  763  A    between atoms: _1641  and  _1642
REMARK  764  A    between atoms: _1641  and  _1644
REMARK  765  A    between atoms: _1644  and  _1645
REMARK  766  A    between atoms: _1651  and  _1652
REMARK  767  A    between atoms: _1652  and  _1653
REMARK  768  A    between atoms: _1652  and  _1655
REMARK  769  A    between atoms: _1658  and  _1659
REMARK  770  A    between atoms: _1659  and  _1660
REMARK  771  A    between atoms: _1659  and  _1662
REMARK  772  A    between atoms: _1662  and  _1663
REMARK  773  A    between atoms: _1663  and  _1664
REMARK  774  A    between atoms: _1667  and  _1668
REMARK  775  A    between atoms: _1668  and  _1669
REMARK  776  A    between atoms: _1668  and  _1671
REMARK  777  A    between atoms: _1671  and  _1672
REMARK  778  A    between atoms: _1672  and  _1673
REMARK  779  A    between atoms: _1673  and  _1674
REMARK                            x       y       z     vdW  Elec       q    Type
REMARK                         _______ _______ _______ _____ _____    ______ ____
ROOT
ATOM      1  C   UNL     1       7.164  38.932  38.571  0.00  0.00    +0.000 C 
ENDROOT
TORSDOF 0
REMARK  Name = /Users/mlugowska/PhD/ML_residence_time_prediction/protein_files/5NYH_protein.pdb
REMARK  779 active torsions:
REMARK  status: ('A' for Active; 'I' for Inactive)
REMARK    1  A    between atoms: _2  and  _3
REMARK    2  A    between atoms: _2  and  _5
REMARK    3  A    between atoms: _5  and  _6
REMARK    4  A    between atoms: _6  and  _7
REMARK    5  A    between atoms: _10  and  _11
REMARK    6  A    between atoms: _11  and  _12
REMARK    7  A    between atoms: _11  and  _14
REMARK    8  A    between atoms: _17  and  _18
REMARK    9  A    between atoms: _18  and  _19
REMARK   10  A    between atoms: _18  and  _21
REMARK   11  A    between atoms: _21  and  _22
REMARK   12  A    between atoms: _22  and  _23
REMARK   13  A    between atoms: _26  and  _27
REMARK   14  A    between atoms: _27  and  _28
REMARK   15  A    between atoms: _27  and  _30
REMARK   16  A    between atoms: _33  and  _34
REMARK   17  A    between atoms: _34  and  _35
REMARK   18  A    between atoms: _34  and  _37
REMARK   19  A    between atoms: _37  and  _38
REMARK   20  A    between atoms: _44  and  _45
REMARK   21  A    between atoms: _45  and  _46
REMARK   22  A    between atoms: _49  and  _50
REMARK   23  A    between atoms: _50  and  _51
REMARK   24  A    between atoms: _50  and  _53
REMARK   25  A    between atoms: _53  and  _54
REMARK   26  A    between atoms: _60  and  _61
REMARK   27  A    between atoms: _61  and  _62
REMARK   28  A    between atoms: _61  and  _64
REMARK   29  A    between atoms: _64  and  _65
REMARK   30  A    between atoms: _65  and  _66
REMARK   31  A    between atoms: _69  and  _70
REMARK   32  A    between atoms: _70  and  _71
REMARK   33  A    between atoms: _74  and  _75
REMARK   34  A    between atoms: _75  and  _76
REMARK   35  A    between atoms: _75  and  _78
REMARK   36  A    between atoms: _78  and  _79
REMARK   37  A    between atoms: _79  and  _80
REMARK   38  A    between atoms: _83  and  _84
REMARK   39  A    between atoms: _84  and  _85
REMARK   40  A    between atoms: _84  and  _87
REMARK   41  A    between atoms: _87  and  _88
REMARK   42  A    between atoms: _91  and  _92
REMARK   43  A    between atoms: _92  and  _93
REMARK   44  A    between atoms: _96  and  _97
REMARK   45  A    between atoms: _97  and  _98
REMARK   46  A    between atoms: _97  and  _100
REMARK   47  A    between atoms: _100  and  _101
REMARK   48  A    between atoms: _101  and  _102
REMARK   49  A    between atoms: _105  and  _106
REMARK   50  A    between atoms: _106  and  _107
REMARK   51  A    between atoms: _106  and  _109
REMARK   52  A    between atoms: _109  and  _110
REMARK   53  A    between atoms: _113  and  _114
REMARK   54  A    between atoms: _114  and  _115
REMARK   55  A    between atoms: _114  and  _117
REMARK   56  A    between atoms: _117  and  _118
REMARK   57  A    between atoms: _118  and  _119
REMARK   58  A    between atoms: _121  and  _122
REMARK   59  A    between atoms: _122  and  _123
REMARK   60  A    between atoms: _122  and  _125
REMARK   61  A    between atoms: _127  and  _128
REMARK   62  A    between atoms: _128  and  _129
REMARK   63  A    between atoms: _128  and  _131
REMARK   64  A    between atoms: _131  and  _132
REMARK   65  A    between atoms: _135  and  _136
REMARK   66  A    between atoms: _136  and  _137
REMARK   67  A    between atoms: _136  and  _139
REMARK   68  A    between atoms: _139  and  _140
REMARK   69  A    between atoms: _143  and  _144
REMARK   70  A    between atoms: _144  and  _145
REMARK   71  A    between atoms: _144  and  _147
REMARK   72  A    between atoms: _147  and  _148
REMARK   73  A    between atoms: _151  and  _152
REMARK   74  A    between atoms: _152  and  _153
REMARK   75  A    between atoms: _152  and  _155
REMARK   76  A    between atoms: _155  and  _156
REMARK   77  A    between atoms: _159  and  _160
REMARK   78  A    between atoms: _160  and  _161
REMARK   79  A    between atoms: _160  and  _163
REMARK   80  A    between atoms: _166  and  _167
REMARK   81  A    between atoms: _167  and  _168
REMARK   82  A    between atoms: _167  and  _170
REMARK   83  A    between atoms: _170  and  _171
REMARK   84  A    between atoms: _177  and  _178
REMARK   85  A    between atoms: _178  and  _179
REMARK   86  A    between atoms: _178  and  _181
REMARK   87  A    between atoms: _181  and  _182
REMARK   88  A    between atoms: _189  and  _190
REMARK   89  A    between atoms: _190  and  _191
REMARK   90  A    between atoms: _190  and  _193
REMARK   91  A    between atoms: _195  and  _196
REMARK   92  A    between atoms: _196  and  _197
REMARK   93  A    between atoms: _196  and  _199
REMARK   94  A    between atoms: _199  and  _200
REMARK   95  A    between atoms: _203  and  _204
REMARK   96  A    between atoms: _204  and  _205
REMARK   97  A    between atoms: _204  and  _207
REMARK   98  A    between atoms: _207  and  _208
REMARK   99  A    between atoms: _208  and  _209
REMARK  100  A    between atoms: _209  and  _210
REMARK  101  A    between atoms: _212  and  _213
REMARK  102  A    between atoms: _213  and  _214
REMARK  103  A    between atoms: _213  and  _216
REMARK  104  A    between atoms: _216  and  _217
REMARK  105  A    between atoms: _217  and  _218
REMARK  106  A    between atoms: _221  and  _222
REMARK  107  A    between atoms: _222  and  _223
REMARK  108  A    between atoms: _222  and  _225
REMARK  109  A    between atoms: _225  and  _226
REMARK  110  A    between atoms: _229  and  _230
REMARK  111  A    between atoms: _230  and  _231
REMARK  112  A    between atoms: _230  and  _233
REMARK  113  A    between atoms: _233  and  _234
REMARK  114  A    between atoms: _240  and  _241
REMARK  115  A    between atoms: _241  and  _242
REMARK  116  A    between atoms: _241  and  _244
REMARK  117  A    between atoms: _244  and  _245
REMARK  118  A    between atoms: _248  and  _249
REMARK  119  A    between atoms: _249  and  _250
REMARK  120  A    between atoms: _249  and  _252
REMARK  121  A    between atoms: _252  and  _253
REMARK  122  A    between atoms: _253  and  _254
REMARK  123  A    between atoms: _254  and  _255
REMARK  124  A    between atoms: _259  and  _260
REMARK  125  A    between atoms: _260  and  _261
REMARK  126  A    between atoms: _260  and  _263
REMARK  127  A    between atoms: _263  and  _264
REMARK  128  A    between atoms: _264  and  _265
REMARK  129  A    between atoms: _268  and  _269
REMARK  130  A    between atoms: _269  and  _270
REMARK  131  A    between atoms: _269  and  _272
REMARK  132  A    between atoms: _272  and  _273
REMARK  133  A    between atoms: _276  and  _277
REMARK  134  A    between atoms: _277  and  _278
REMARK  135  A    between atoms: _277  and  _280
REMARK  136  A    between atoms: _280  and  _281
REMARK  137  A    between atoms: _284  and  _285
REMARK  138  A    between atoms: _285  and  _286
REMARK  139  A    between atoms: _285  and  _288
REMARK  140  A    between atoms: _290  and  _291
REMARK  141  A    between atoms: _291  and  _292
REMARK  142  A    between atoms: _291  and  _294
REMARK  143  A    between atoms: _294  and  _295
REMARK  144  A    between atoms: _298  and  _299
REMARK  145  A    between atoms: _299  and  _300
REMARK  146  A    between atoms: _299  and  _302
REMARK  147  A    between atoms: _304  and  _305
REMARK  148  A    between atoms: _305  and  _306
REMARK  149  A    between atoms: _305  and  _308
REMARK  150  A    between atoms: _310  and  _311
REMARK  151  A    between atoms: _311  and  _312
REMARK  152  A    between atoms: _311  and  _314
REMARK  153  A    between atoms: _314  and  _315
REMARK  154  A    between atoms: _318  and  _319
REMARK  155  A    between atoms: _319  and  _320
REMARK  156  A    between atoms: _323  and  _324
REMARK  157  A    between atoms: _324  and  _325
REMARK  158  A    between atoms: _324  and  _327
REMARK  159  A    between atoms: _327  and  _328
REMARK  160  A    between atoms: _331  and  _332
REMARK  161  A    between atoms: _332  and  _333
REMARK  162  A    between atoms: _332  and  _335
REMARK  163  A    between atoms: _335  and  _336
REMARK  164  A    between atoms: _339  and  _340
REMARK  165  A    between atoms: _340  and  _341
REMARK  166  A    between atoms: _340  and  _343
REMARK  167  A    between atoms: _343  and  _344
REMARK  168  A    between atoms: _344  and  _345
REMARK  169  A    between atoms: _345  and  _346
REMARK  170  A    between atoms: _348  and  _349
REMARK  171  A    between atoms: _349  and  _350
REMARK  172  A    between atoms: _349  and  _352
REMARK  173  A    between atoms: _352  and  _353
REMARK  174  A    between atoms: _356  and  _357
REMARK  175  A    between atoms: _357  and  _358
REMARK  176  A    between atoms: _357  and  _360
REMARK  177  A    between atoms: _360  and  _361
REMARK  178  A    between atoms: _361  and  _362
REMARK  179  A    between atoms: _362  and  _363
REMARK  180  A    between atoms: _367  and  _368
REMARK  181  A    between atoms: _368  and  _369
REMARK  182  A    between atoms: _368  and  _371
REMARK  183  A    between atoms: _371  and  _372
REMARK  184  A    between atoms: _379  and  _380
REMARK  185  A    between atoms: _380  and  _381
REMARK  186  A    between atoms: _380  and  _383
REMARK  187  A    between atoms: _383  and  _384
REMARK  188  A    between atoms: _384  and  _385
REMARK  189  A    between atoms: _388  and  _389
REMARK  190  A    between atoms: _389  and  _390
REMARK  191  A    between atoms: _389  and  _392
REMARK  192  A    between atoms: _394  and  _395
REMARK  193  A    between atoms: _395  and  _396
REMARK  194  A    between atoms: _395  and  _398
REMARK  195  A    between atoms: _398  and  _399
REMARK  196  A    between atoms: _402  and  _403
REMARK  197  A    between atoms: _403  and  _404
REMARK  198  A    between atoms: _403  and  _406
REMARK  199  A    between atoms: _409  and  _410
REMARK  200  A    between atoms: _410  and  _411
REMARK  201  A    between atoms: _410  and  _413
REMARK  202  A    between atoms: _413  and  _414
REMARK  203  A    between atoms: _418  and  _419
REMARK  204  A    between atoms: _424  and  _425
REMARK  205  A    between atoms: _425  and  _426
REMARK  206  A    between atoms: _425  and  _428
REMARK  207  A    between atoms: _430  and  _431
REMARK  208  A    between atoms: _431  and  _432
REMARK  209  A    between atoms: _431  and  _434
REMARK  210  A    between atoms: _434  and  _435
REMARK  211  A    between atoms: _435  and  _436
REMARK  212  A    between atoms: _436  and  _437
REMARK  213  A    between atoms: _439  and  _440
REMARK  214  A    between atoms: _440  and  _441
REMARK  215  A    between atoms: _440  and  _443
REMARK  216  A    between atoms: _443  and  _444
REMARK  217  A    between atoms: _447  and  _448
REMARK  218  A    between atoms: _448  and  _449
REMARK  219  A    between atoms: _448  and  _451
REMARK  220  A    between atoms: _451  and  _452
REMARK  221  A    between atoms: _455  and  _456
REMARK  222  A    between atoms: _456  and  _457
REMARK  223  A    between atoms: _456  and  _459
REMARK  224  A    between atoms: _461  and  _462
REMARK  225  A    between atoms: _462  and  _463
REMARK  226  A    between atoms: _465  and  _466
REMARK  227  A    between atoms: _466  and  _467
REMARK  228  A    between atoms: _466  and  _469
REMARK  229  A    between atoms: _469  and  _470
REMARK  230  A    between atoms: _470  and  _471
REMARK  231  A    between atoms: _471  and  _472
REMARK  232  A    between atoms: _474  and  _475
REMARK  233  A    between atoms: _475  and  _476
REMARK  234  A    between atoms: _475  and  _478
REMARK  235  A    between atoms: _478  and  _479
REMARK  236  A    between atoms: _479  and  _480
REMARK  237  A    between atoms: _483  and  _484
REMARK  238  A    between atoms: _484  and  _485
REMARK  239  A    between atoms: _484  and  _487
REMARK  240  A    between atoms: _487  and  _488
REMARK  241  A    between atoms: _491  and  _492
REMARK  242  A    between atoms: _492  and  _493
REMARK  243  A    between atoms: _492  and  _495
REMARK  244  A    between atoms: _495  and  _496
REMARK  245  A    between atoms: _501  and  _502
REMARK  246  A    between atoms: _502  and  _503
REMARK  247  A    between atoms: _502  and  _505
REMARK  248  A    between atoms: _505  and  _506
REMARK  249  A    between atoms: _509  and  _510
REMARK  250  A    between atoms: _510  and  _511
REMARK  251  A    between atoms: _510  and  _513
REMARK  252  A    between atoms: _513  and  _514
REMARK  253  A    between atoms: _517  and  _518
REMARK  254  A    between atoms: _518  and  _519
REMARK  255  A    between atoms: _518  and  _521
REMARK  256  A    between atoms: _521  and  _522
REMARK  257  A    between atoms: _525  and  _526
REMARK  258  A    between atoms: _526  and  _527
REMARK  259  A    between atoms: _526  and  _529
REMARK  260  A    between atoms: _529  and  _530
REMARK  261  A    between atoms: _534  and  _535
REMARK  262  A    between atoms: _540  and  _541
REMARK  263  A    between atoms: _541  and  _542
REMARK  264  A    between atoms: _541  and  _544
REMARK  265  A    between atoms: _544  and  _545
REMARK  266  A    between atoms: _548  and  _549
REMARK  267  A    between atoms: _549  and  _552
REMARK  268  A    between atoms: _552  and  _553
REMARK  269  A    between atoms: _553  and  _554
REMARK  270  A    between atoms: _554  and  _555
REMARK  271  A    between atoms: _568  and  _569
REMARK  272  A    between atoms: _576  and  _577
REMARK  273  A    between atoms: _576  and  _579
REMARK  274  A    between atoms: _579  and  _580
REMARK  275  A    between atoms: _583  and  _584
REMARK  276  A    between atoms: _584  and  _585
REMARK  277  A    between atoms: _584  and  _587
REMARK  278  A    between atoms: _587  and  _588
REMARK  279  A    between atoms: _588  and  _589
REMARK  280  A    between atoms: _589  and  _590
REMARK  281  A    between atoms: _594  and  _595
REMARK  282  A    between atoms: _595  and  _596
REMARK  283  A    between atoms: _595  and  _598
REMARK  284  A    between atoms: _601  and  _602
REMARK  285  A    between atoms: _602  and  _603
REMARK  286  A    between atoms: _602  and  _605
REMARK  287  A    between atoms: _605  and  _606
REMARK  288  A    between atoms: _609  and  _610
REMARK  289  A    between atoms: _610  and  _611
REMARK  290  A    between atoms: _610  and  _613
REMARK  291  A    between atoms: _616  and  _617
REMARK  292  A    between atoms: _617  and  _618
REMARK  293  A    between atoms: _617  and  _620
REMARK  294  A    between atoms: _620  and  _621
REMARK  295  A    between atoms: _624  and  _625
REMARK  296  A    between atoms: _625  and  _626
REMARK  297  A    between atoms: _625  and  _628
REMARK  298  A    between atoms: _631  and  _632
REMARK  299  A    between atoms: _632  and  _633
REMARK  300  A    between atoms: _632  and  _635
REMARK  301  A    between atoms: _635  and  _636
REMARK  302  A    between atoms: _639  and  _640
REMARK  303  A    between atoms: _640  and  _641
REMARK  304  A    between atoms: _640  and  _643
REMARK  305  A    between atoms: _646  and  _647
REMARK  306  A    between atoms: _647  and  _648
REMARK  307  A    between atoms: _650  and  _651
REMARK  308  A    between atoms: _651  and  _652
REMARK  309  A    between atoms: _651  and  _654
REMARK  310  A    between atoms: _654  and  _655
REMARK  311  A    between atoms: _658  and  _659
REMARK  312  A    between atoms: _659  and  _660
REMARK  313  A    between atoms: _662  and  _663
REMARK  314  A    between atoms: _663  and  _664
REMARK  315  A    between atoms: _663  and  _666
REMARK  316  A    between atoms: _666  and  _667
REMARK  317  A    between atoms: _667  and  _668
REMARK  318  A    between atoms: _670  and  _671
REMARK  319  A    between atoms: _671  and  _672
REMARK  320  A    between atoms: _671  and  _674
REMARK  321  A    between atoms: _677  and  _678
REMARK  322  A    between atoms: _678  and  _679
REMARK  323  A    between atoms: _678  and  _681
REMARK  324  A    between atoms: _681  and  _682
REMARK  325  A    between atoms: _682  and  _683
REMARK  326  A    between atoms: _683  and  _684
REMARK  327  A    between atoms: _686  and  _687
REMARK  328  A    between atoms: _687  and  _688
REMARK  329  A    between atoms: _691  and  _692
REMARK  330  A    between atoms: _692  and  _693
REMARK  331  A    between atoms: _692  and  _695
REMARK  332  A    between atoms: _695  and  _696
REMARK  333  A    between atoms: _699  and  _700
REMARK  334  A    between atoms: _700  and  _701
REMARK  335  A    between atoms: _700  and  _703
REMARK  336  A    between atoms: _703  and  _704
REMARK  337  A    between atoms: _707  and  _708
REMARK  338  A    between atoms: _708  and  _709
REMARK  339  A    between atoms: _708  and  _711
REMARK  340  A    between atoms: _711  and  _712
REMARK  341  A    between atoms: _715  and  _716
REMARK  342  A    between atoms: _716  and  _717
REMARK  343  A    between atoms: _716  and  _719
REMARK  344  A    between atoms: _719  and  _720
REMARK  345  A    between atoms: _723  and  _724
REMARK  346  A    between atoms: _724  and  _725
REMARK  347  A    between atoms: _724  and  _727
REMARK  348  A    between atoms: _727  and  _728
REMARK  349  A    between atoms: _731  and  _732
REMARK  350  A    between atoms: _732  and  _733
REMARK  351  A    between atoms: _732  and  _735
REMARK  352  A    between atoms: _735  and  _736
REMARK  353  A    between atoms: _739  and  _740
REMARK  354  A    between atoms: _740  and  _741
REMARK  355  A    between atoms: _743  and  _744
REMARK  356  A    between atoms: _744  and  _745
REMARK  357  A    between atoms: _744  and  _747
REMARK  358  A    between atoms: _750  and  _751
REMARK  359  A    between atoms: _751  and  _752
REMARK  360  A    between atoms: _751  and  _754
REMARK  361  A    between atoms: _754  and  _755
REMARK  362  A    between atoms: _758  and  _759
REMARK  363  A    between atoms: _759  and  _760
REMARK  364  A    between atoms: _763  and  _764
REMARK  365  A    between atoms: _764  and  _765
REMARK  366  A    between atoms: _764  and  _767
REMARK  367  A    between atoms: _767  and  _768
REMARK  368  A    between atoms: _768  and  _769
REMARK  369  A    between atoms: _769  and  _770
REMARK  370  A    between atoms: _772  and  _773
REMARK  371  A    between atoms: _773  and  _774
REMARK  372  A    between atoms: _773  and  _776
REMARK  373  A    between atoms: _778  and  _779
REMARK  374  A    between atoms: _779  and  _780
REMARK  375  A    between atoms: _782  and  _783
REMARK  376  A    between atoms: _783  and  _784
REMARK  377  A    between atoms: _783  and  _786
REMARK  378  A    between atoms: _789  and  _790
REMARK  379  A    between atoms: _790  and  _791
REMARK  380  A    between atoms: _790  and  _793
REMARK  381  A    between atoms: _793  and  _794
REMARK  382  A    between atoms: _794  and  _795
REMARK  383  A    between atoms: _795  and  _796
REMARK  384  A    between atoms: _798  and  _799
REMARK  385  A    between atoms: _799  and  _800
REMARK  386  A    between atoms: _803  and  _804
REMARK  387  A    between atoms: _804  and  _805
REMARK  388  A    between atoms: _804  and  _807
REMARK  389  A    between atoms: _807  and  _808
REMARK  390  A    between atoms: _814  and  _815
REMARK  391  A    between atoms: _815  and  _816
REMARK  392  A    between atoms: _815  and  _818
REMARK  393  A    between atoms: _818  and  _819
REMARK  394  A    between atoms: _819  and  _820
REMARK  395  A    between atoms: _822  and  _823
REMARK  396  A    between atoms: _823  and  _824
REMARK  397  A    between atoms: _823  and  _826
REMARK  398  A    between atoms: _826  and  _827
REMARK  399  A    between atoms: _827  and  _828
REMARK  400  A    between atoms: _831  and  _832
REMARK  401  A    between atoms: _832  and  _833
REMARK  402  A    between atoms: _836  and  _837
REMARK  403  A    between atoms: _837  and  _838
REMARK  404  A    between atoms: _837  and  _840
REMARK  405  A    between atoms: _840  and  _841
REMARK  406  A    between atoms: _844  and  _845
REMARK  407  A    between atoms: _845  and  _846
REMARK  408  A    between atoms: _845  and  _848
REMARK  409  A    between atoms: _848  and  _849
REMARK  410  A    between atoms: _849  and  _850
REMARK  411  A    between atoms: _853  and  _854
REMARK  412  A    between atoms: _854  and  _855
REMARK  413  A    between atoms: _858  and  _859
REMARK  414  A    between atoms: _859  and  _860
REMARK  415  A    between atoms: _862  and  _863
REMARK  416  A    between atoms: _863  and  _864
REMARK  417  A    between atoms: _867  and  _868
REMARK  418  A    between atoms: _868  and  _869
REMARK  419  A    between atoms: _868  and  _871
REMARK  420  A    between atoms: _871  and  _872
REMARK  421  A    between atoms: _875  and  _876
REMARK  422  A    between atoms: _876  and  _877
REMARK  423  A    between atoms: _876  and  _879
REMARK  424  A    between atoms: _879  and  _880
REMARK  425  A    between atoms: _883  and  _884
REMARK  426  A    between atoms: _884  and  _887
REMARK  427  A    between atoms: _906  and  _907
REMARK  428  A    between atoms: _906  and  _909
REMARK  429  A    between atoms: _909  and  _910
REMARK  430  A    between atoms: _913  and  _914
REMARK  431  A    between atoms: _914  and  _915
REMARK  432  A    between atoms: _917  and  _918
REMARK  433  A    between atoms: _918  and  _919
REMARK  434  A    between atoms: _918  and  _921
REMARK  435  A    between atoms: _921  and  _922
REMARK  436  A    between atoms: _922  and  _923
REMARK  437  A    between atoms: _926  and  _927
REMARK  438  A    between atoms: _927  and  _928
REMARK  439  A    between atoms: _927  and  _930
REMARK  440  A    between atoms: _930  and  _931
REMARK  441  A    between atoms: _937  and  _938
REMARK  442  A    between atoms: _938  and  _939
REMARK  443  A    between atoms: _941  and  _942
REMARK  444  A    between atoms: _942  and  _943
REMARK  445  A    between atoms: _942  and  _945
REMARK  446  A    between atoms: _948  and  _949
REMARK  447  A    between atoms: _949  and  _950
REMARK  448  A    between atoms: _952  and  _953
REMARK  449  A    between atoms: _953  and  _954
REMARK  450  A    between atoms: _953  and  _956
REMARK  451  A    between atoms: _956  and  _957
REMARK  452  A    between atoms: _963  and  _964
REMARK  453  A    between atoms: _964  and  _965
REMARK  454  A    between atoms: _964  and  _967
REMARK  455  A    between atoms: _967  and  _968
REMARK  456  A    between atoms: _975  and  _976
REMARK  457  A    between atoms: _976  and  _977
REMARK  458  A    between atoms: _976  and  _979
REMARK  459  A    between atoms: _981  and  _982
REMARK  460  A    between atoms: _982  and  _983
REMARK  461  A    between atoms: _986  and  _987
REMARK  462  A    between atoms: _987  and  _988
REMARK  463  A    between atoms: _987  and  _990
REMARK  464  A    between atoms: _990  and  _991
REMARK  465  A    between atoms: _998  and  _999
REMARK  466  A    between atoms: _999  and  _1000
REMARK  467  A    between atoms: _999  and  _1002
REMARK  468  A    between atoms: _1002  and  _1003
REMARK  469  A    between atoms: _1006  and  _1007
REMARK  470  A    between atoms: _1007  and  _1008
REMARK  471  A    between atoms: _1007  and  _1010
REMARK  472  A    between atoms: _1013  and  _1014
REMARK  473  A    between atoms: _1014  and  _1015
REMARK  474  A    between atoms: _1018  and  _1019
REMARK  475  A    between atoms: _1019  and  _1020
REMARK  476  A    between atoms: _1019  and  _1022
REMARK  477  A    between atoms: _1023  and  _1024
REMARK  478  A    between atoms: _1027  and  _1028
REMARK  479  A    between atoms: _1028  and  _1029
REMARK  480  A    between atoms: _1028  and  _1031
REMARK  481  A    between atoms: _1031  and  _1032
REMARK  482  A    between atoms: _1032  and  _1033
REMARK  483  A    between atoms: _1033  and  _1034
REMARK  484  A    between atoms: _1036  and  _1037
REMARK  485  A    between atoms: _1037  and  _1038
REMARK  486  A    between atoms: _1037  and  _1040
REMARK  487  A    between atoms: _1043  and  _1044
REMARK  488  A    between atoms: _1044  and  _1045
REMARK  489  A    between atoms: _1044  and  _1047
REMARK  490  A    between atoms: _1050  and  _1051
REMARK  491  A    between atoms: _1051  and  _1052
REMARK  492  A    between atoms: _1051  and  _1054
REMARK  493  A    between atoms: _1057  and  _1058
REMARK  494  A    between atoms: _1058  and  _1059
REMARK  495  A    between atoms: _1058  and  _1061
REMARK  496  A    between atoms: _1061  and  _1062
REMARK  497  A    between atoms: _1065  and  _1066
REMARK  498  A    between atoms: _1066  and  _1067
REMARK  499  A    between atoms: _1066  and  _1069
REMARK  500  A    between atoms: _1072  and  _1073
REMARK  501  A    between atoms: _1073  and  _1074
REMARK  502  A    between atoms: _1073  and  _1076
REMARK  503  A    between atoms: _1076  and  _1077
REMARK  504  A    between atoms: _1077  and  _1078
REMARK  505  A    between atoms: _1078  and  _1079
REMARK  506  A    between atoms: _1081  and  _1082
REMARK  507  A    between atoms: _1082  and  _1083
REMARK  508  A    between atoms: _1082  and  _1085
REMARK  509  A    between atoms: _1085  and  _1086
REMARK  510  A    between atoms: _1091  and  _1092
REMARK  511  A    between atoms: _1092  and  _1093
REMARK  512  A    between atoms: _1092  and  _1095
REMARK  513  A    between atoms: _1095  and  _1096
REMARK  514  A    between atoms: _1099  and  _1100
REMARK  515  A    between atoms: _1100  and  _1101
REMARK  516  A    between atoms: _1100  and  _1103
REMARK  517  A    between atoms: _1103  and  _1104
REMARK  518  A    between atoms: _1107  and  _1108
REMARK  519  A    between atoms: _1108  and  _1111
REMARK  520  A    between atoms: _1111  and  _1112
REMARK  521  A    between atoms: _1125  and  _1127
REMARK  522  A    between atoms: _1134  and  _1135
REMARK  523  A    between atoms: _1134  and  _1137
REMARK  524  A    between atoms: _1137  and  _1138
REMARK  525  A    between atoms: _1138  and  _1139
REMARK  526  A    between atoms: _1142  and  _1143
REMARK  527  A    between atoms: _1143  and  _1144
REMARK  528  A    between atoms: _1143  and  _1146
REMARK  529  A    between atoms: _1146  and  _1147
REMARK  530  A    between atoms: _1154  and  _1155
REMARK  531  A    between atoms: _1155  and  _1156
REMARK  532  A    between atoms: _1159  and  _1160
REMARK  533  A    between atoms: _1160  and  _1161
REMARK  534  A    between atoms: _1160  and  _1163
REMARK  535  A    between atoms: _1163  and  _1164
REMARK  536  A    between atoms: _1173  and  _1174
REMARK  537  A    between atoms: _1174  and  _1175
REMARK  538  A    between atoms: _1174  and  _1177
REMARK  539  A    between atoms: _1177  and  _1178
REMARK  540  A    between atoms: _1178  and  _1179
REMARK  541  A    between atoms: _1182  and  _1183
REMARK  542  A    between atoms: _1183  and  _1184
REMARK  543  A    between atoms: _1183  and  _1186
REMARK  544  A    between atoms: _1188  and  _1189
REMARK  545  A    between atoms: _1189  and  _1190
REMARK  546  A    between atoms: _1189  and  _1192
REMARK  547  A    between atoms: _1194  and  _1195
REMARK  548  A    between atoms: _1195  and  _1196
REMARK  549  A    between atoms: _1199  and  _1200
REMARK  550  A    between atoms: _1200  and  _1201
REMARK  551  A    between atoms: _1203  and  _1204
REMARK  552  A    between atoms: _1204  and  _1205
REMARK  553  A    between atoms: _1207  and  _1208
REMARK  554  A    between atoms: _1208  and  _1209
REMARK  555  A    between atoms: _1208  and  _1211
REMARK  556  A    between atoms: _1213  and  _1214
REMARK  557  A    between atoms: _1214  and  _1215
REMARK  558  A    between atoms: _1214  and  _1217
REMARK  559  A    between atoms: _1217  and  _1218
REMARK  560  A    between atoms: _1224  and  _1225
REMARK  561  A    between atoms: _1225  and  _1226
REMARK  562  A    between atoms: _1225  and  _1228
REMARK  563  A    between atoms: _1231  and  _1232
REMARK  564  A    between atoms: _1232  and  _1233
REMARK  565  A    between atoms: _1232  and  _1235
REMARK  566  A    between atoms: _1238  and  _1239
REMARK  567  A    between atoms: _1239  and  _1240
REMARK  568  A    between atoms: _1239  and  _1242
REMARK  569  A    between atoms: _1242  and  _1243
REMARK  570  A    between atoms: _1243  and  _1244
REMARK  571  A    between atoms: _1244  and  _1245
REMARK  572  A    between atoms: _1249  and  _1250
REMARK  573  A    between atoms: _1250  and  _1251
REMARK  574  A    between atoms: _1250  and  _1253
REMARK  575  A    between atoms: _1256  and  _1257
REMARK  576  A    between atoms: _1257  and  _1258
REMARK  577  A    between atoms: _1257  and  _1260
REMARK  578  A    between atoms: _1260  and  _1261
REMARK  579  A    between atoms: _1264  and  _1265
REMARK  580  A    between atoms: _1265  and  _1266
REMARK  581  A    between atoms: _1265  and  _1268
REMARK  582  A    between atoms: _1271  and  _1272
REMARK  583  A    between atoms: _1272  and  _1273
REMARK  584  A    between atoms: _1275  and  _1276
REMARK  585  A    between atoms: _1276  and  _1277
REMARK  586  A    between atoms: _1276  and  _1279
REMARK  587  A    between atoms: _1279  and  _1280
REMARK  588  A    between atoms: _1280  and  _1281
REMARK  589  A    between atoms: _1285  and  _1286
REMARK  590  A    between atoms: _1291  and  _1293
REMARK  591  A    between atoms: _1298  and  _1299
REMARK  592  A    between atoms: _1299  and  _1301
REMARK  593  A    between atoms: _1300  and  _1301
REMARK  594  A    between atoms: _1304  and  _1305
REMARK  595  A    between atoms: _1305  and  _1306
REMARK  596  A    between atoms: _1308  and  _1309
REMARK  597  A    between atoms: _1309  and  _1310
REMARK  598  A    between atoms: _1309  and  _1312
REMARK  599  A    between atoms: _1312  and  _1313
REMARK  600  A    between atoms: _1313  and  _1314
REMARK  601  A    between atoms: _1314  and  _1315
REMARK  602  A    between atoms: _1319  and  _1320
REMARK  603  A    between atoms: _1320  and  _1321
REMARK  604  A    between atoms: _1323  and  _1324
REMARK  605  A    between atoms: _1324  and  _1325
REMARK  606  A    between atoms: _1324  and  _1327
REMARK  607  A    between atoms: _1330  and  _1331
REMARK  608  A    between atoms: _1331  and  _1332
REMARK  609  A    between atoms: _1331  and  _1334
REMARK  610  A    between atoms: _1334  and  _1335
REMARK  611  A    between atoms: _1335  and  _1336
REMARK  612  A    between atoms: _1336  and  _1337
REMARK  613  A    between atoms: _1339  and  _1340
REMARK  614  A    between atoms: _1340  and  _1341
REMARK  615  A    between atoms: _1340  and  _1343
REMARK  616  A    between atoms: _1346  and  _1347
REMARK  617  A    between atoms: _1347  and  _1348
REMARK  618  A    between atoms: _1347  and  _1350
REMARK  619  A    between atoms: _1350  and  _1351
REMARK  620  A    between atoms: _1354  and  _1355
REMARK  621  A    between atoms: _1355  and  _1356
REMARK  622  A    between atoms: _1355  and  _1358
REMARK  623  A    between atoms: _1358  and  _1359
REMARK  624  A    between atoms: _1362  and  _1363
REMARK  625  A    between atoms: _1363  and  _1364
REMARK  626  A    between atoms: _1363  and  _1366
REMARK  627  A    between atoms: _1366  and  _1367
REMARK  628  A    between atoms: _1372  and  _1373
REMARK  629  A    between atoms: _1373  and  _1374
REMARK  630  A    between atoms: _1373  and  _1376
REMARK  631  A    between atoms: _1376  and  _1377
REMARK  632  A    between atoms: _1380  and  _1381
REMARK  633  A    between atoms: _1381  and  _1382
REMARK  634  A    between atoms: _1381  and  _1384
REMARK  635  A    between atoms: _1384  and  _1385
REMARK  636  A    between atoms: _1385  and  _1386
REMARK  637  A    between atoms: _1386  and  _1387
REMARK  638  A    between atoms: _1389  and  _1390
REMARK  639  A    between atoms: _1390  and  _1391
REMARK  640  A    between atoms: _1390  and  _1393
REMARK  641  A    between atoms: _1393  and  _1394
REMARK  642  A    between atoms: _1394  and  _1395
REMARK  643  A    between atoms: _1398  and  _1399
REMARK  644  A    between atoms: _1399  and  _1400
REMARK  645  A    between atoms: _1399  and  _1402
REMARK  646  A    between atoms: _1402  and  _1403
REMARK  647  A    between atoms: _1406  and  _1407
REMARK  648  A    between atoms: _1407  and  _1408
REMARK  649  A    between atoms: _1407  and  _1410
REMARK  650  A    between atoms: _1410  and  _1411
REMARK  651  A    between atoms: _1411  and  _1412
REMARK  652  A    between atoms: _1415  and  _1416
REMARK  653  A    between atoms: _1416  and  _1417
REMARK  654  A    between atoms: _1416  and  _1419
REMARK  655  A    between atoms: _1422  and  _1423
REMARK  656  A    between atoms: _1423  and  _1424
REMARK  657  A    between atoms: _1423  and  _1426
REMARK  658  A    between atoms: _1426  and  _1427
REMARK  659  A    between atoms: _1427  and  _1428
REMARK  660  A    between atoms: _1431  and  _1432
REMARK  661  A    between atoms: _1432  and  _1433
REMARK  662  A    between atoms: _1432  and  _1435
REMARK  663  A    between atoms: _1435  and  _1436
REMARK  664  A    between atoms: _1443  and  _1444
REMARK  665  A    between atoms: _1444  and  _1445
REMARK  666  A    between atoms: _1444  and  _1447
REMARK  667  A    between atoms: _1447  and  _1448
REMARK  668  A    between atoms: _1451  and  _1452
REMARK  669  A    between atoms: _1452  and  _1453
REMARK  670  A    between atoms: _1452  and  _1455
REMARK  671  A    between atoms: _1455  and  _1456
REMARK  672  A    between atoms: _1456  and  _1457
REMARK  673  A    between atoms: _1460  and  _1461
REMARK  674  A    between atoms: _1461  and  _1462
REMARK  675  A    between atoms: _1461  and  _1464
REMARK  676  A    between atoms: _1464  and  _1465
REMARK  677  A    between atoms: _1465  and  _1466
REMARK  678  A    between atoms: _1469  and  _1470
REMARK  679  A    between atoms: _1470  and  _1471
REMARK  680  A    between atoms: _1470  and  _1473
REMARK  681  A    between atoms: _1473  and  _1474
REMARK  682  A    between atoms: _1474  and  _1475
REMARK  683  A    between atoms: _1475  and  _1476
REMARK  684  A    between atoms: _1480  and  _1481
REMARK  685  A    between atoms: _1481  and  _1482
REMARK  686  A    between atoms: _1481  and  _1484
REMARK  687  A    between atoms: _1484  and  _1485
REMARK  688  A    between atoms: _1485  and  _1486
REMARK  689  A    between atoms: _1486  and  _1487
REMARK  690  A    between atoms: _1491  and  _1492
REMARK  691  A    between atoms: _1492  and  _1493
REMARK  692  A    between atoms: _1492  and  _1495
REMARK  693  A    between atoms: _1495  and  _1496
REMARK  694  A    between atoms: _1499  and  _1500
REMARK  695  A    between atoms: _1500  and  _1501
REMARK  696  A    between atoms: _1500  and  _1503
REMARK  697  A    between atoms: _1503  and  _1504
REMARK  698  A    between atoms: _1504  and  _1505
REMARK  699  A    between atoms: _1505  and  _1506
REMARK  700  A    between atoms: _1508  and  _1509
REMARK  701  A    between atoms: _1509  and  _1510
REMARK  702  A    between atoms: _1509  and  _1512
REMARK  703  A    between atoms: _1512  and  _1513
REMARK  704  A    between atoms: _1513  and  _1514
REMARK  705  A    between atoms: _1517  and  _1518
REMARK  706  A    between atoms: _1518  and  _1519
REMARK  707  A    between atoms: _1518  and  _1521
REMARK  708  A    between atoms: _1521  and  _1522
REMARK  709  A    between atoms: _1525  and  _1526
REMARK  710  A    between atoms: _1526  and  _1527
REMARK  711  A    between atoms: _1526  and  _1529
REMARK  712  A    between atoms: _1532  and  _1533
REMARK  713  A    between atoms: _1533  and  _1534
REMARK  714  A    between atoms: _1533  and  _1536
REMARK  715  A    between atoms: _1536  and  _1537
REMARK  716  A    between atoms: _1537  and  _1538
REMARK  717  A    between atoms: _1538  and  _1539
REMARK  718  A    between atoms: _1541  and  _1542
REMARK  719  A    between atoms: _1542  and  _1543
REMARK  720  A    between atoms: _1542  and  _1545
REMARK  721  A    between atoms: _1545  and  _1546
REMARK  722  A    between atoms: _1546  and  _1547
REMARK  723  A    between atoms: _1547  and  _1548
REMARK  724  A    between atoms: _1550  and  _1551
REMARK  725  A    between atoms: _1551  and  _1552
REMARK  726  A    between atoms: _1551  and  _1554
REMARK  727  A    between atoms: _1554  and  _1555
REMARK  728  A    between atoms: _1560  and  _1561
REMARK  729  A    between atoms: _1561  and  _1562
REMARK  730  A    between atoms: _1561  and  _1564
REMARK  731  A    between atoms: _1566  and  _1567
REMARK  732  A    between atoms: _1567  and  _1568
REMARK  733  A    between atoms: _1567  and  _1570
REMARK  734  A    between atoms: _1570  and  _1571
REMARK  735  A    between atoms: _1571  and  _1572
REMARK  736  A    between atoms: _1575  and  _1576
REMARK  737  A    between atoms: _1576  and  _1577
REMARK  738  A    between atoms: _1576  and  _1579
REMARK  739  A    between atoms: _1579  and  _1580
REMARK  740  A    between atoms: _1586  and  _1587
REMARK  741  A    between atoms: _1587  and  _1588
REMARK  742  A    between atoms: _1587  and  _1590
REMARK  743  A    between atoms: _1590  and  _1591
REMARK  744  A    between atoms: _1594  and  _1595
REMARK  745  A    between atoms: _1595  and  _1596
REMARK  746  A    between atoms: _1598  and  _1599
REMARK  747  A    between atoms: _1599  and  _1600
REMARK  748  A    between atoms: _1599  and  _1602
REMARK  749  A    between atoms: _1602  and  _1603
REMARK  750  A    between atoms: _1611  and  _1612
REMARK  751  A    between atoms: _1617  and  _1618
REMARK  752  A    between atoms: _1618  and  _1619
REMARK  753  A    between atoms: _1618  and  _1621
REMARK  754  A    between atoms: _1621  and  _1622
REMARK  755  A    between atoms: _1625  and  _1626
REMARK  756  A    between atoms: _1626  and  _1627
REMARK  757  A    between atoms: _1626  and  _1629
REMARK  758  A    between atoms: _1632  and  _1633
REMARK  759  A    between atoms: _1633  and  _1634
REMARK  760  A    between atoms: _1633  and  _1636
REMARK  761  A    between atoms: _1636  and  _1637
REMARK  762  A    between atoms: _1640  and  _1641
REMARK  763  A    between atoms: _1641  and  _1642
REMARK  764  A    between atoms: _1641  and  _1644
REMARK  765  A    between atoms: _1644  and  _1645
REMARK  766  A    between atoms: _1651  and  _1652
REMARK  767  A    between atoms: _1652  and  _1653
REMARK  768  A    between atoms: _1652  and  _1655
REMARK  769  A    between atoms: _1658  and  _1659
REMARK  770  A    between atoms: _1659  and  _1660
REMARK  771  A    between atoms: _1659  and  _1662
REMARK  772  A    between atoms: _1662  and  _1663
REMARK  773  A    between atoms: _1663  and  _1664
REMARK  774  A    between atoms: _1667  and  _1668
REMARK  775  A    between atoms: _1668  and  _1669
REMARK  776  A    between atoms: _1668  and  _1671
REMARK  777  A    between atoms: _1671  and  _1672
REMARK  778  A    between atoms: _1672  and  _1673
REMARK  779  A    between atoms: _1673  and  _1674
REMARK                            x       y       z     vdW  Elec       q    Type
REMARK                         _______ _______ _______ _____ _____    ______ ____
ROOT
ATOM      1  C   UNL     1       7.151  38.937  38.569  0.00  0.00    +0.279 C 
ATOM      2  O   UNL     1       7.284  39.886  37.795  0.00  0.00    -0.279 OA
ENDROOT
TORSDOF 0
REMARK  Name = /Users/mlugowska/PhD/ML_residence_time_prediction/protein_files/5NYH_protein.pdb
REMARK  779 active torsions:
REMARK  status: ('A' for Active; 'I' for Inactive)
REMARK    1  A    between atoms: _2  and  _3
REMARK    2  A    between atoms: _2  and  _5
REMARK    3  A    between atoms: _5  and  _6
REMARK    4  A    between atoms: _6  and  _7
REMARK    5  A    between atoms: _10  and  _11
REMARK    6  A    between atoms: _11  and  _12
REMARK    7  A    between atoms: _11  and  _14
REMARK    8  A    between atoms: _17  and  _18
REMARK    9  A    between atoms: _18  and  _19
REMARK   10  A    between atoms: _18  and  _21
REMARK   11  A    between atoms: _21  and  _22
REMARK   12  A    between atoms: _22  and  _23
REMARK   13  A    between atoms: _26  and  _27
REMARK   14  A    between atoms: _27  and  _28
REMARK   15  A    between atoms: _27  and  _30
REMARK   16  A    between atoms: _33  and  _34
REMARK   17  A    between atoms: _34  and  _35
REMARK   18  A    between atoms: _34  and  _37
REMARK   19  A    between atoms: _37  and  _38
REMARK   20  A    between atoms: _44  and  _45
REMARK   21  A    between atoms: _45  and  _46
REMARK   22  A    between atoms: _49  and  _50
REMARK   23  A    between atoms: _50  and  _51
REMARK   24  A    between atoms: _50  and  _53
REMARK   25  A    between atoms: _53  and  _54
REMARK   26  A    between atoms: _60  and  _61
REMARK   27  A    between atoms: _61  and  _62
REMARK   28  A    between atoms: _61  and  _64
REMARK   29  A    between atoms: _64  and  _65
REMARK   30  A    between atoms: _65  and  _66
REMARK   31  A    between atoms: _69  and  _70
REMARK   32  A    between atoms: _70  and  _71
REMARK   33  A    between atoms: _74  and  _75
REMARK   34  A    between atoms: _75  and  _76
REMARK   35  A    between atoms: _75  and  _78
REMARK   36  A    between atoms: _78  and  _79
REMARK   37  A    between atoms: _79  and  _80
REMARK   38  A    between atoms: _83  and  _84
REMARK   39  A    between atoms: _84  and  _85
REMARK   40  A    between atoms: _84  and  _87
REMARK   41  A    between atoms: _87  and  _88
REMARK   42  A    between atoms: _91  and  _92
REMARK   43  A    between atoms: _92  and  _93
REMARK   44  A    between atoms: _96  and  _97
REMARK   45  A    between atoms: _97  and  _98
REMARK   46  A    between atoms: _97  and  _100
REMARK   47  A    between atoms: _100  and  _101
REMARK   48  A    between atoms: _101  and  _102
REMARK   49  A    between atoms: _105  and  _106
REMARK   50  A    between atoms: _106  and  _107
REMARK   51  A    between atoms: _106  and  _109
REMARK   52  A    between atoms: _109  and  _110
REMARK   53  A    between atoms: _113  and  _114
REMARK   54  A    between atoms: _114  and  _115
REMARK   55  A    between atoms: _114  and  _117
REMARK   56  A    between atoms: _117  and  _118
REMARK   57  A    between atoms: _118  and  _119
REMARK   58  A    between atoms: _121  and  _122
REMARK   59  A    between atoms: _122  and  _123
REMARK   60  A    between atoms: _122  and  _125
REMARK   61  A    between atoms: _127  and  _128
REMARK   62  A    between atoms: _128  and  _129
REMARK   63  A    between atoms: _128  and  _131
REMARK   64  A    between atoms: _131  and  _132
REMARK   65  A    between atoms: _135  and  _136
REMARK   66  A    between atoms: _136  and  _137
REMARK   67  A    between atoms: _136  and  _139
REMARK   68  A    between atoms: _139  and  _140
REMARK   69  A    between atoms: _143  and  _144
REMARK   70  A    between atoms: _144  and  _145
REMARK   71  A    between atoms: _144  and  _147
REMARK   72  A    between atoms: _147  and  _148
REMARK   73  A    between atoms: _151  and  _152
REMARK   74  A    between atoms: _152  and  _153
REMARK   75  A    between atoms: _152  and  _155
REMARK   76  A    between atoms: _155  and  _156
REMARK   77  A    between atoms: _159  and  _160
REMARK   78  A    between atoms: _160  and  _161
REMARK   79  A    between atoms: _160  and  _163
REMARK   80  A    between atoms: _166  and  _167
REMARK   81  A    between atoms: _167  and  _168
REMARK   82  A    between atoms: _167  and  _170
REMARK   83  A    between atoms: _170  and  _171
REMARK   84  A    between atoms: _177  and  _178
REMARK   85  A    between atoms: _178  and  _179
REMARK   86  A    between atoms: _178  and  _181
REMARK   87  A    between atoms: _181  and  _182
REMARK   88  A    between atoms: _189  and  _190
REMARK   89  A    between atoms: _190  and  _191
REMARK   90  A    between atoms: _190  and  _193
REMARK   91  A    between atoms: _195  and  _196
REMARK   92  A    between atoms: _196  and  _197
REMARK   93  A    between atoms: _196  and  _199
REMARK   94  A    between atoms: _199  and  _200
REMARK   95  A    between atoms: _203  and  _204
REMARK   96  A    between atoms: _204  and  _205
REMARK   97  A    between atoms: _204  and  _207
REMARK   98  A    between atoms: _207  and  _208
REMARK   99  A    between atoms: _208  and  _209
REMARK  100  A    between atoms: _209  and  _210
REMARK  101  A    between atoms: _212  and  _213
REMARK  102  A    between atoms: _213  and  _214
REMARK  103  A    between atoms: _213  and  _216
REMARK  104  A    between atoms: _216  and  _217
REMARK  105  A    between atoms: _217  and  _218
REMARK  106  A    between atoms: _221  and  _222
REMARK  107  A    between atoms: _222  and  _223
REMARK  108  A    between atoms: _222  and  _225
REMARK  109  A    between atoms: _225  and  _226
REMARK  110  A    between atoms: _229  and  _230
REMARK  111  A    between atoms: _230  and  _231
REMARK  112  A    between atoms: _230  and  _233
REMARK  113  A    between atoms: _233  and  _234
REMARK  114  A    between atoms: _240  and  _241
REMARK  115  A    between atoms: _241  and  _242
REMARK  116  A    between atoms: _241  and  _244
REMARK  117  A    between atoms: _244  and  _245
REMARK  118  A    between atoms: _248  and  _249
REMARK  119  A    between atoms: _249  and  _250
REMARK  120  A    between atoms: _249  and  _252
REMARK  121  A    between atoms: _252  and  _253
REMARK  122  A    between atoms: _253  and  _254
REMARK  123  A    between atoms: _254  and  _255
REMARK  124  A    between atoms: _259  and  _260
REMARK  125  A    between atoms: _260  and  _261
REMARK  126  A    between atoms: _260  and  _263
REMARK  127  A    between atoms: _263  and  _264
REMARK  128  A    between atoms: _264  and  _265
REMARK  129  A    between atoms: _268  and  _269
REMARK  130  A    between atoms: _269  and  _270
REMARK  131  A    between atoms: _269  and  _272
REMARK  132  A    between atoms: _272  and  _273
REMARK  133  A    between atoms: _276  and  _277
REMARK  134  A    between atoms: _277  and  _278
REMARK  135  A    between atoms: _277  and  _280
REMARK  136  A    between atoms: _280  and  _281
REMARK  137  A    between atoms: _284  and  _285
REMARK  138  A    between atoms: _285  and  _286
REMARK  139  A    between atoms: _285  and  _288
REMARK  140  A    between atoms: _290  and  _291
REMARK  141  A    between atoms: _291  and  _292
REMARK  142  A    between atoms: _291  and  _294
REMARK  143  A    between atoms: _294  and  _295
REMARK  144  A    between atoms: _298  and  _299
REMARK  145  A    between atoms: _299  and  _300
REMARK  146  A    between atoms: _299  and  _302
REMARK  147  A    between atoms: _304  and  _305
REMARK  148  A    between atoms: _305  and  _306
REMARK  149  A    between atoms: _305  and  _308
REMARK  150  A    between atoms: _310  and  _311
REMARK  151  A    between atoms: _311  and  _312
REMARK  152  A    between atoms: _311  and  _314
REMARK  153  A    between atoms: _314  and  _315
REMARK  154  A    between atoms: _318  and  _319
REMARK  155  A    between atoms: _319  and  _320
REMARK  156  A    between atoms: _323  and  _324
REMARK  157  A    between atoms: _324  and  _325
REMARK  158  A    between atoms: _324  and  _327
REMARK  159  A    between atoms: _327  and  _328
REMARK  160  A    between atoms: _331  and  _332
REMARK  161  A    between atoms: _332  and  _333
REMARK  162  A    between atoms: _332  and  _335
REMARK  163  A    between atoms: _335  and  _336
REMARK  164  A    between atoms: _339  and  _340
REMARK  165  A    between atoms: _340  and  _341
REMARK  166  A    between atoms: _340  and  _343
REMARK  167  A    between atoms: _343  and  _344
REMARK  168  A    between atoms: _344  and  _345
REMARK  169  A    between atoms: _345  and  _346
REMARK  170  A    between atoms: _348  and  _349
REMARK  171  A    between atoms: _349  and  _350
REMARK  172  A    between atoms: _349  and  _352
REMARK  173  A    between atoms: _352  and  _353
REMARK  174  A    between atoms: _356  and  _357
REMARK  175  A    between atoms: _357  and  _358
REMARK  176  A    between atoms: _357  and  _360
REMARK  177  A    between atoms: _360  and  _361
REMARK  178  A    between atoms: _361  and  _362
REMARK  179  A    between atoms: _362  and  _363
REMARK  180  A    between atoms: _367  and  _368
REMARK  181  A    between atoms: _368  and  _369
REMARK  182  A    between atoms: _368  and  _371
REMARK  183  A    between atoms: _371  and  _372
REMARK  184  A    between atoms: _379  and  _380
REMARK  185  A    between atoms: _380  and  _381
REMARK  186  A    between atoms: _380  and  _383
REMARK  187  A    between atoms: _383  and  _384
REMARK  188  A    between atoms: _384  and  _385
REMARK  189  A    between atoms: _388  and  _389
REMARK  190  A    between atoms: _389  and  _390
REMARK  191  A    between atoms: _389  and  _392
REMARK  192  A    between atoms: _394  and  _395
REMARK  193  A    between atoms: _395  and  _396
REMARK  194  A    between atoms: _395  and  _398
REMARK  195  A    between atoms: _398  and  _399
REMARK  196  A    between atoms: _402  and  _403
REMARK  197  A    between atoms: _403  and  _404
REMARK  198  A    between atoms: _403  and  _406
REMARK  199  A    between atoms: _409  and  _410
REMARK  200  A    between atoms: _410  and  _411
REMARK  201  A    between atoms: _410  and  _413
REMARK  202  A    between atoms: _413  and  _414
REMARK  203  A    between atoms: _418  and  _419
REMARK  204  A    between atoms: _424  and  _425
REMARK  205  A    between atoms: _425  and  _426
REMARK  206  A    between atoms: _425  and  _428
REMARK  207  A    between atoms: _430  and  _431
REMARK  208  A    between atoms: _431  and  _432
REMARK  209  A    between atoms: _431  and  _434
REMARK  210  A    between atoms: _434  and  _435
REMARK  211  A    between atoms: _435  and  _436
REMARK  212  A    between atoms: _436  and  _437
REMARK  213  A    between atoms: _439  and  _440
REMARK  214  A    between atoms: _440  and  _441
REMARK  215  A    between atoms: _440  and  _443
REMARK  216  A    between atoms: _443  and  _444
REMARK  217  A    between atoms: _447  and  _448
REMARK  218  A    between atoms: _448  and  _449
REMARK  219  A    between atoms: _448  and  _451
REMARK  220  A    between atoms: _451  and  _452
REMARK  221  A    between atoms: _455  and  _456
REMARK  222  A    between atoms: _456  and  _457
REMARK  223  A    between atoms: _456  and  _459
REMARK  224  A    between atoms: _461  and  _462
REMARK  225  A    between atoms: _462  and  _463
REMARK  226  A    between atoms: _465  and  _466
REMARK  227  A    between atoms: _466  and  _467
REMARK  228  A    between atoms: _466  and  _469
REMARK  229  A    between atoms: _469  and  _470
REMARK  230  A    between atoms: _470  and  _471
REMARK  231  A    between atoms: _471  and  _472
REMARK  232  A    between atoms: _474  and  _475
REMARK  233  A    between atoms: _475  and  _476
REMARK  234  A    between atoms: _475  and  _478
REMARK  235  A    between atoms: _478  and  _479
REMARK  236  A    between atoms: _479  and  _480
REMARK  237  A    between atoms: _483  and  _484
REMARK  238  A    between atoms: _484  and  _485
REMARK  239  A    between atoms: _484  and  _487
REMARK  240  A    between atoms: _487  and  _488
REMARK  241  A    between atoms: _491  and  _492
REMARK  242  A    between atoms: _492  and  _493
REMARK  243  A    between atoms: _492  and  _495
REMARK  244  A    between atoms: _495  and  _496
REMARK  245  A    between atoms: _501  and  _502
REMARK  246  A    between atoms: _502  and  _503
REMARK  247  A    between atoms: _502  and  _505
REMARK  248  A    between atoms: _505  and  _506
REMARK  249  A    between atoms: _509  and  _510
REMARK  250  A    between atoms: _510  and  _511
REMARK  251  A    between atoms: _510  and  _513
REMARK  252  A    between atoms: _513  and  _514
REMARK  253  A    between atoms: _517  and  _518
REMARK  254  A    between atoms: _518  and  _519
REMARK  255  A    between atoms: _518  and  _521
REMARK  256  A    between atoms: _521  and  _522
REMARK  257  A    between atoms: _525  and  _526
REMARK  258  A    between atoms: _526  and  _527
REMARK  259  A    between atoms: _526  and  _529
REMARK  260  A    between atoms: _529  and  _530
REMARK  261  A    between atoms: _534  and  _535
REMARK  262  A    between atoms: _540  and  _541
REMARK  263  A    between atoms: _541  and  _542
REMARK  264  A    between atoms: _541  and  _544
REMARK  265  A    between atoms: _544  and  _545
REMARK  266  A    between atoms: _548  and  _549
REMARK  267  A    between atoms: _549  and  _552
REMARK  268  A    between atoms: _552  and  _553
REMARK  269  A    between atoms: _553  and  _554
REMARK  270  A    between atoms: _554  and  _555
REMARK  271  A    between atoms: _568  and  _569
REMARK  272  A    between atoms: _576  and  _577
REMARK  273  A    between atoms: _576  and  _579
REMARK  274  A    between atoms: _579  and  _580
REMARK  275  A    between atoms: _583  and  _584
REMARK  276  A    between atoms: _584  and  _585
REMARK  277  A    between atoms: _584  and  _587
REMARK  278  A    between atoms: _587  and  _588
REMARK  279  A    between atoms: _588  and  _589
REMARK  280  A    between atoms: _589  and  _590
REMARK  281  A    between atoms: _594  and  _595
REMARK  282  A    between atoms: _595  and  _596
REMARK  283  A    between atoms: _595  and  _598
REMARK  284  A    between atoms: _601  and  _602
REMARK  285  A    between atoms: _602  and  _603
REMARK  286  A    between atoms: _602  and  _605
REMARK  287  A    between atoms: _605  and  _606
REMARK  288  A    between atoms: _609  and  _610
REMARK  289  A    between atoms: _610  and  _611
REMARK  290  A    between atoms: _610  and  _613
REMARK  291  A    between atoms: _616  and  _617
REMARK  292  A    between atoms: _617  and  _618
REMARK  293  A    between atoms: _617  and  _620
REMARK  294  A    between atoms: _620  and  _621
REMARK  295  A    between atoms: _624  and  _625
REMARK  296  A    between atoms: _625  and  _626
REMARK  297  A    between atoms: _625  and  _628
REMARK  298  A    between atoms: _631  and  _632
REMARK  299  A    between atoms: _632  and  _633
REMARK  300  A    between atoms: _632  and  _635
REMARK  301  A    between atoms: _635  and  _636
REMARK  302  A    between atoms: _639  and  _640
REMARK  303  A    between atoms: _640  and  _641
REMARK  304  A    between atoms: _640  and  _643
REMARK  305  A    between atoms: _646  and  _647
REMARK  306  A    between atoms: _647  and  _648
REMARK  307  A    between atoms: _650  and  _651
REMARK  308  A    between atoms: _651  and  _652
REMARK  309  A    between atoms: _651  and  _654
REMARK  310  A    between atoms: _654  and  _655
REMARK  311  A    between atoms: _658  and  _659
REMARK  312  A    between atoms: _659  and  _660
REMARK  313  A    between atoms: _662  and  _663
REMARK  314  A    between atoms: _663  and  _664
REMARK  315  A    between atoms: _663  and  _666
REMARK  316  A    between atoms: _666  and  _667
REMARK  317  A    between atoms: _667  and  _668
REMARK  318  A    between atoms: _670  and  _671
REMARK  319  A    between atoms: _671  and  _672
REMARK  320  A    between atoms: _671  and  _674
REMARK  321  A    between atoms: _677  and  _678
REMARK  322  A    between atoms: _678  and  _679
REMARK  323  A    between atoms: _678  and  _681
REMARK  324  A    between atoms: _681  and  _682
REMARK  325  A    between atoms: _682  and  _683
REMARK  326  A    between atoms: _683  and  _684
REMARK  327  A    between atoms: _686  and  _687
REMARK  328  A    between atoms: _687  and  _688
REMARK  329  A    between atoms: _691  and  _692
REMARK  330  A    between atoms: _692  and  _693
REMARK  331  A    between atoms: _692  and  _695
REMARK  332  A    between atoms: _695  and  _696
REMARK  333  A    between atoms: _699  and  _700
REMARK  334  A    between atoms: _700  and  _701
REMARK  335  A    between atoms: _700  and  _703
REMARK  336  A    between atoms: _703  and  _704
REMARK  337  A    between atoms: _707  and  _708
REMARK  338  A    between atoms: _708  and  _709
REMARK  339  A    between atoms: _708  and  _711
REMARK  340  A    between atoms: _711  and  _712
REMARK  341  A    between atoms: _715  and  _716
REMARK  342  A    between atoms: _716  and  _717
REMARK  343  A    between atoms: _716  and  _719
REMARK  344  A    between atoms: _719  and  _720
REMARK  345  A    between atoms: _723  and  _724
REMARK  346  A    between atoms: _724  and  _725
REMARK  347  A    between atoms: _724  and  _727
REMARK  348  A    between atoms: _727  and  _728
REMARK  349  A    between atoms: _731  and  _732
REMARK  350  A    between atoms: _732  and  _733
REMARK  351  A    between atoms: _732  and  _735
REMARK  352  A    between atoms: _735  and  _736
REMARK  353  A    between atoms: _739  and  _740
REMARK  354  A    between atoms: _740  and  _741
REMARK  355  A    between atoms: _743  and  _744
REMARK  356  A    between atoms: _744  and  _745
REMARK  357  A    between atoms: _744  and  _747
REMARK  358  A    between atoms: _750  and  _751
REMARK  359  A    between atoms: _751  and  _752
REMARK  360  A    between atoms: _751  and  _754
REMARK  361  A    between atoms: _754  and  _755
REMARK  362  A    between atoms: _758  and  _759
REMARK  363  A    between atoms: _759  and  _760
REMARK  364  A    between atoms: _763  and  _764
REMARK  365  A    between atoms: _764  and  _765
REMARK  366  A    between atoms: _764  and  _767
REMARK  367  A    between atoms: _767  and  _768
REMARK  368  A    between atoms: _768  and  _769
REMARK  369  A    between atoms: _769  and  _770
REMARK  370  A    between atoms: _772  and  _773
REMARK  371  A    between atoms: _773  and  _774
REMARK  372  A    between atoms: _773  and  _776
REMARK  373  A    between atoms: _778  and  _779
REMARK  374  A    between atoms: _779  and  _780
REMARK  375  A    between atoms: _782  and  _783
REMARK  376  A    between atoms: _783  and  _784
REMARK  377  A    between atoms: _783  and  _786
REMARK  378  A    between atoms: _789  and  _790
REMARK  379  A    between atoms: _790  and  _791
REMARK  380  A    between atoms: _790  and  _793
REMARK  381  A    between atoms: _793  and  _794
REMARK  382  A    between atoms: _794  and  _795
REMARK  383  A    between atoms: _795  and  _796
REMARK  384  A    between atoms: _798  and  _799
REMARK  385  A    between atoms: _799  and  _800
REMARK  386  A    between atoms: _803  and  _804
REMARK  387  A    between atoms: _804  and  _805
REMARK  388  A    between atoms: _804  and  _807
REMARK  389  A    between atoms: _807  and  _808
REMARK  390  A    between atoms: _814  and  _815
REMARK  391  A    between atoms: _815  and  _816
REMARK  392  A    between atoms: _815  and  _818
REMARK  393  A    between atoms: _818  and  _819
REMARK  394  A    between atoms: _819  and  _820
REMARK  395  A    between atoms: _822  and  _823
REMARK  396  A    between atoms: _823  and  _824
REMARK  397  A    between atoms: _823  and  _826
REMARK  398  A    between atoms: _826  and  _827
REMARK  399  A    between atoms: _827  and  _828
REMARK  400  A    between atoms: _831  and  _832
REMARK  401  A    between atoms: _832  and  _833
REMARK  402  A    between atoms: _836  and  _837
REMARK  403  A    between atoms: _837  and  _838
REMARK  404  A    between atoms: _837  and  _840
REMARK  405  A    between atoms: _840  and  _841
REMARK  406  A    between atoms: _844  and  _845
REMARK  407  A    between atoms: _845  and  _846
REMARK  408  A    between atoms: _845  and  _848
REMARK  409  A    between atoms: _848  and  _849
REMARK  410  A    between atoms: _849  and  _850
REMARK  411  A    between atoms: _853  and  _854
REMARK  412  A    between atoms: _854  and  _855
REMARK  413  A    between atoms: _858  and  _859
REMARK  414  A    between atoms: _859  and  _860
REMARK  415  A    between atoms: _862  and  _863
REMARK  416  A    between atoms: _863  and  _864
REMARK  417  A    between atoms: _867  and  _868
REMARK  418  A    between atoms: _868  and  _869
REMARK  419  A    between atoms: _868  and  _871
REMARK  420  A    between atoms: _871  and  _872
REMARK  421  A    between atoms: _875  and  _876
REMARK  422  A    between atoms: _876  and  _877
REMARK  423  A    between atoms: _876  and  _879
REMARK  424  A    between atoms: _879  and  _880
REMARK  425  A    between atoms: _883  and  _884
REMARK  426  A    between atoms: _884  and  _887
REMARK  427  A    between atoms: _906  and  _907
REMARK  428  A    between atoms: _906  and  _909
REMARK  429  A    between atoms: _909  and  _910
REMARK  430  A    between atoms: _913  and  _914
REMARK  431  A    between atoms: _914  and  _915
REMARK  432  A    between atoms: _917  and  _918
REMARK  433  A    between atoms: _918  and  _919
REMARK  434  A    between atoms: _918  and  _921
REMARK  435  A    between atoms: _921  and  _922
REMARK  436  A    between atoms: _922  and  _923
REMARK  437  A    between atoms: _926  and  _927
REMARK  438  A    between atoms: _927  and  _928
REMARK  439  A    between atoms: _927  and  _930
REMARK  440  A    between atoms: _930  and  _931
REMARK  441  A    between atoms: _937  and  _938
REMARK  442  A    between atoms: _938  and  _939
REMARK  443  A    between atoms: _941  and  _942
REMARK  444  A    between atoms: _942  and  _943
REMARK  445  A    between atoms: _942  and  _945
REMARK  446  A    between atoms: _948  and  _949
REMARK  447  A    between atoms: _949  and  _950
REMARK  448  A    between atoms: _952  and  _953
REMARK  449  A    between atoms: _953  and  _954
REMARK  450  A    between atoms: _953  and  _956
REMARK  451  A    between atoms: _956  and  _957
REMARK  452  A    between atoms: _963  and  _964
REMARK  453  A    between atoms: _964  and  _965
REMARK  454  A    between atoms: _964  and  _967
REMARK  455  A    between atoms: _967  and  _968
REMARK  456  A    between atoms: _975  and  _976
REMARK  457  A    between atoms: _976  and  _977
REMARK  458  A    between atoms: _976  and  _979
REMARK  459  A    between atoms: _981  and  _982
REMARK  460  A    between atoms: _982  and  _983
REMARK  461  A    between atoms: _986  and  _987
REMARK  462  A    between atoms: _987  and  _988
REMARK  463  A    between atoms: _987  and  _990
REMARK  464  A    between atoms: _990  and  _991
REMARK  465  A    between atoms: _998  and  _999
REMARK  466  A    between atoms: _999  and  _1000
REMARK  467  A    between atoms: _999  and  _1002
REMARK  468  A    between atoms: _1002  and  _1003
REMARK  469  A    between atoms: _1006  and  _1007
REMARK  470  A    between atoms: _1007  and  _1008
REMARK  471  A    between atoms: _1007  and  _1010
REMARK  472  A    between atoms: _1013  and  _1014
REMARK  473  A    between atoms: _1014  and  _1015
REMARK  474  A    between atoms: _1018  and  _1019
REMARK  475  A    between atoms: _1019  and  _1020
REMARK  476  A    between atoms: _1019  and  _1022
REMARK  477  A    between atoms: _1023  and  _1024
REMARK  478  A    between atoms: _1027  and  _1028
REMARK  479  A    between atoms: _1028  and  _1029
REMARK  480  A    between atoms: _1028  and  _1031
REMARK  481  A    between atoms: _1031  and  _1032
REMARK  482  A    between atoms: _1032  and  _1033
REMARK  483  A    between atoms: _1033  and  _1034
REMARK  484  A    between atoms: _1036  and  _1037
REMARK  485  A    between atoms: _1037  and  _1038
REMARK  486  A    between atoms: _1037  and  _1040
REMARK  487  A    between atoms: _1043  and  _1044
REMARK  488  A    between atoms: _1044  and  _1045
REMARK  489  A    between atoms: _1044  and  _1047
REMARK  490  A    between atoms: _1050  and  _1051
REMARK  491  A    between atoms: _1051  and  _1052
REMARK  492  A    between atoms: _1051  and  _1054
REMARK  493  A    between atoms: _1057  and  _1058
REMARK  494  A    between atoms: _1058  and  _1059
REMARK  495  A    between atoms: _1058  and  _1061
REMARK  496  A    between atoms: _1061  and  _1062
REMARK  497  A    between atoms: _1065  and  _1066
REMARK  498  A    between atoms: _1066  and  _1067
REMARK  499  A    between atoms: _1066  and  _1069
REMARK  500  A    between atoms: _1072  and  _1073
REMARK  501  A    between atoms: _1073  and  _1074
REMARK  502  A    between atoms: _1073  and  _1076
REMARK  503  A    between atoms: _1076  and  _1077
REMARK  504  A    between atoms: _1077  and  _1078
REMARK  505  A    between atoms: _1078  and  _1079
REMARK  506  A    between atoms: _1081  and  _1082
REMARK  507  A    between atoms: _1082  and  _1083
REMARK  508  A    between atoms: _1082  and  _1085
REMARK  509  A    between atoms: _1085  and  _1086
REMARK  510  A    between atoms: _1091  and  _1092
REMARK  511  A    between atoms: _1092  and  _1093
REMARK  512  A    between atoms: _1092  and  _1095
REMARK  513  A    between atoms: _1095  and  _1096
REMARK  514  A    between atoms: _1099  and  _1100
REMARK  515  A    between atoms: _1100  and  _1101
REMARK  516  A    between atoms: _1100  and  _1103
REMARK  517  A    between atoms: _1103  and  _1104
REMARK  518  A    between atoms: _1107  and  _1108
REMARK  519  A    between atoms: _1108  and  _1111
REMARK  520  A    between atoms: _1111  and  _1112
REMARK  521  A    between atoms: _1125  and  _1127
REMARK  522  A    between atoms: _1134  and  _1135
REMARK  523  A    between atoms: _1134  and  _1137
REMARK  524  A    between atoms: _1137  and  _1138
REMARK  525  A    between atoms: _1138  and  _1139
REMARK  526  A    between atoms: _1142  and  _1143
REMARK  527  A    between atoms: _1143  and  _1144
REMARK  528  A    between atoms: _1143  and  _1146
REMARK  529  A    between atoms: _1146  and  _1147
REMARK  530  A    between atoms: _1154  and  _1155
REMARK  531  A    between atoms: _1155  and  _1156
REMARK  532  A    between atoms: _1159  and  _1160
REMARK  533  A    between atoms: _1160  and  _1161
REMARK  534  A    between atoms: _1160  and  _1163
REMARK  535  A    between atoms: _1163  and  _1164
REMARK  536  A    between atoms: _1173  and  _1174
REMARK  537  A    between atoms: _1174  and  _1175
REMARK  538  A    between atoms: _1174  and  _1177
REMARK  539  A    between atoms: _1177  and  _1178
REMARK  540  A    between atoms: _1178  and  _1179
REMARK  541  A    between atoms: _1182  and  _1183
REMARK  542  A    between atoms: _1183  and  _1184
REMARK  543  A    between atoms: _1183  and  _1186
REMARK  544  A    between atoms: _1188  and  _1189
REMARK  545  A    between atoms: _1189  and  _1190
REMARK  546  A    between atoms: _1189  and  _1192
REMARK  547  A    between atoms: _1194  and  _1195
REMARK  548  A    between atoms: _1195  and  _1196
REMARK  549  A    between atoms: _1199  and  _1200
REMARK  550  A    between atoms: _1200  and  _1201
REMARK  551  A    between atoms: _1203  and  _1204
REMARK  552  A    between atoms: _1204  and  _1205
REMARK  553  A    between atoms: _1207  and  _1208
REMARK  554  A    between atoms: _1208  and  _1209
REMARK  555  A    between atoms: _1208  and  _1211
REMARK  556  A    between atoms: _1213  and  _1214
REMARK  557  A    between atoms: _1214  and  _1215
REMARK  558  A    between atoms: _1214  and  _1217
REMARK  559  A    between atoms: _1217  and  _1218
REMARK  560  A    between atoms: _1224  and  _1225
REMARK  561  A    between atoms: _1225  and  _1226
REMARK  562  A    between atoms: _1225  and  _1228
REMARK  563  A    between atoms: _1231  and  _1232
REMARK  564  A    between atoms: _1232  and  _1233
REMARK  565  A    between atoms: _1232  and  _1235
REMARK  566  A    between atoms: _1238  and  _1239
REMARK  567  A    between atoms: _1239  and  _1240
REMARK  568  A    between atoms: _1239  and  _1242
REMARK  569  A    between atoms: _1242  and  _1243
REMARK  570  A    between atoms: _1243  and  _1244
REMARK  571  A    between atoms: _1244  and  _1245
REMARK  572  A    between atoms: _1249  and  _1250
REMARK  573  A    between atoms: _1250  and  _1251
REMARK  574  A    between atoms: _1250  and  _1253
REMARK  575  A    between atoms: _1256  and  _1257
REMARK  576  A    between atoms: _1257  and  _1258
REMARK  577  A    between atoms: _1257  and  _1260
REMARK  578  A    between atoms: _1260  and  _1261
REMARK  579  A    between atoms: _1264  and  _1265
REMARK  580  A    between atoms: _1265  and  _1266
REMARK  581  A    between atoms: _1265  and  _1268
REMARK  582  A    between atoms: _1271  and  _1272
REMARK  583  A    between atoms: _1272  and  _1273
REMARK  584  A    between atoms: _1275  and  _1276
REMARK  585  A    between atoms: _1276  and  _1277
REMARK  586  A    between atoms: _1276  and  _1279
REMARK  587  A    between atoms: _1279  and  _1280
REMARK  588  A    between atoms: _1280  and  _1281
REMARK  589  A    between atoms: _1285  and  _1286
REMARK  590  A    between atoms: _1291  and  _1293
REMARK  591  A    between atoms: _1298  and  _1299
REMARK  592  A    between atoms: _1299  and  _1301
REMARK  593  A    between atoms: _1300  and  _1301
REMARK  594  A    between atoms: _1304  and  _1305
REMARK  595  A    between atoms: _1305  and  _1306
REMARK  596  A    between atoms: _1308  and  _1309
REMARK  597  A    between atoms: _1309  and  _1310
REMARK  598  A    between atoms: _1309  and  _1312
REMARK  599  A    between atoms: _1312  and  _1313
REMARK  600  A    between atoms: _1313  and  _1314
REMARK  601  A    between atoms: _1314  and  _1315
REMARK  602  A    between atoms: _1319  and  _1320
REMARK  603  A    between atoms: _1320  and  _1321
REMARK  604  A    between atoms: _1323  and  _1324
REMARK  605  A    between atoms: _1324  and  _1325
REMARK  606  A    between atoms: _1324  and  _1327
REMARK  607  A    between atoms: _1330  and  _1331
REMARK  608  A    between atoms: _1331  and  _1332
REMARK  609  A    between atoms: _1331  and  _1334
REMARK  610  A    between atoms: _1334  and  _1335
REMARK  611  A    between atoms: _1335  and  _1336
REMARK  612  A    between atoms: _1336  and  _1337
REMARK  613  A    between atoms: _1339  and  _1340
REMARK  614  A    between atoms: _1340  and  _1341
REMARK  615  A    between atoms: _1340  and  _1343
REMARK  616  A    between atoms: _1346  and  _1347
REMARK  617  A    between atoms: _1347  and  _1348
REMARK  618  A    between atoms: _1347  and  _1350
REMARK  619  A    between atoms: _1350  and  _1351
REMARK  620  A    between atoms: _1354  and  _1355
REMARK  621  A    between atoms: _1355  and  _1356
REMARK  622  A    between atoms: _1355  and  _1358
REMARK  623  A    between atoms: _1358  and  _1359
REMARK  624  A    between atoms: _1362  and  _1363
REMARK  625  A    between atoms: _1363  and  _1364
REMARK  626  A    between atoms: _1363  and  _1366
REMARK  627  A    between atoms: _1366  and  _1367
REMARK  628  A    between atoms: _1372  and  _1373
REMARK  629  A    between atoms: _1373  and  _1374
REMARK  630  A    between atoms: _1373  and  _1376
REMARK  631  A    between atoms: _1376  and  _1377
REMARK  632  A    between atoms: _1380  and  _1381
REMARK  633  A    between atoms: _1381  and  _1382
REMARK  634  A    between atoms: _1381  and  _1384
REMARK  635  A    between atoms: _1384  and  _1385
REMARK  636  A    between atoms: _1385  and  _1386
REMARK  637  A    between atoms: _1386  and  _1387
REMARK  638  A    between atoms: _1389  and  _1390
REMARK  639  A    between atoms: _1390  and  _1391
REMARK  640  A    between atoms: _1390  and  _1393
REMARK  641  A    between atoms: _1393  and  _1394
REMARK  642  A    between atoms: _1394  and  _1395
REMARK  643  A    between atoms: _1398  and  _1399
REMARK  644  A    between atoms: _1399  and  _1400
REMARK  645  A    between atoms: _1399  and  _1402
REMARK  646  A    between atoms: _1402  and  _1403
REMARK  647  A    between atoms: _1406  and  _1407
REMARK  648  A    between atoms: _1407  and  _1408
REMARK  649  A    between atoms: _1407  and  _1410
REMARK  650  A    between atoms: _1410  and  _1411
REMARK  651  A    between atoms: _1411  and  _1412
REMARK  652  A    between atoms: _1415  and  _1416
REMARK  653  A    between atoms: _1416  and  _1417
REMARK  654  A    between atoms: _1416  and  _1419
REMARK  655  A    between atoms: _1422  and  _1423
REMARK  656  A    between atoms: _1423  and  _1424
REMARK  657  A    between atoms: _1423  and  _1426
REMARK  658  A    between atoms: _1426  and  _1427
REMARK  659  A    between atoms: _1427  and  _1428
REMARK  660  A    between atoms: _1431  and  _1432
REMARK  661  A    between atoms: _1432  and  _1433
REMARK  662  A    between atoms: _1432  and  _1435
REMARK  663  A    between atoms: _1435  and  _1436
REMARK  664  A    between atoms: _1443  and  _1444
REMARK  665  A    between atoms: _1444  and  _1445
REMARK  666  A    between atoms: _1444  and  _1447
REMARK  667  A    between atoms: _1447  and  _1448
REMARK  668  A    between atoms: _1451  and  _1452
REMARK  669  A    between atoms: _1452  and  _1453
REMARK  670  A    between atoms: _1452  and  _1455
REMARK  671  A    between atoms: _1455  and  _1456
REMARK  672  A    between atoms: _1456  and  _1457
REMARK  673  A    between atoms: _1460  and  _1461
REMARK  674  A    between atoms: _1461  and  _1462
REMARK  675  A    between atoms: _1461  and  _1464
REMARK  676  A    between atoms: _1464  and  _1465
REMARK  677  A    between atoms: _1465  and  _1466
REMARK  678  A    between atoms: _1469  and  _1470
REMARK  679  A    between atoms: _1470  and  _1471
REMARK  680  A    between atoms: _1470  and  _1473
REMARK  681  A    between atoms: _1473  and  _1474
REMARK  682  A    between atoms: _1474  and  _1475
REMARK  683  A    between atoms: _1475  and  _1476
REMARK  684  A    between atoms: _1480  and  _1481
REMARK  685  A    between atoms: _1481  and  _1482
REMARK  686  A    between atoms: _1481  and  _1484
REMARK  687  A    between atoms: _1484  and  _1485
REMARK  688  A    between atoms: _1485  and  _1486
REMARK  689  A    between atoms: _1486  and  _1487
REMARK  690  A    between atoms: _1491  and  _1492
REMARK  691  A    between atoms: _1492  and  _1493
REMARK  692  A    between atoms: _1492  and  _1495
REMARK  693  A    between atoms: _1495  and  _1496
REMARK  694  A    between atoms: _1499  and  _1500
REMARK  695  A    between atoms: _1500  and  _1501
REMARK  696  A    between atoms: _1500  and  _1503
REMARK  697  A    between atoms: _1503  and  _1504
REMARK  698  A    between atoms: _1504  and  _1505
REMARK  699  A    between atoms: _1505  and  _1506
REMARK  700  A    between atoms: _1508  and  _1509
REMARK  701  A    between atoms: _1509  and  _1510
REMARK  702  A    between atoms: _1509  and  _1512
REMARK  703  A    between atoms: _1512  and  _1513
REMARK  704  A    between atoms: _1513  and  _1514
REMARK  705  A    between atoms: _1517  and  _1518
REMARK  706  A    between atoms: _1518  and  _1519
REMARK  707  A    between atoms: _1518  and  _1521
REMARK  708  A    between atoms: _1521  and  _1522
REMARK  709  A    between atoms: _1525  and  _1526
REMARK  710  A    between atoms: _1526  and  _1527
REMARK  711  A    between atoms: _1526  and  _1529
REMARK  712  A    between atoms: _1532  and  _1533
REMARK  713  A    between atoms: _1533  and  _1534
REMARK  714  A    between atoms: _1533  and  _1536
REMARK  715  A    between atoms: _1536  and  _1537
REMARK  716  A    between atoms: _1537  and  _1538
REMARK  717  A    between atoms: _1538  and  _1539
REMARK  718  A    between atoms: _1541  and  _1542
REMARK  719  A    between atoms: _1542  and  _1543
REMARK  720  A    between atoms: _1542  and  _1545
REMARK  721  A    between atoms: _1545  and  _1546
REMARK  722  A    between atoms: _1546  and  _1547
REMARK  723  A    between atoms: _1547  and  _1548
REMARK  724  A    between atoms: _1550  and  _1551
REMARK  725  A    between atoms: _1551  and  _1552
REMARK  726  A    between atoms: _1551  and  _1554
REMARK  727  A    between atoms: _1554  and  _1555
REMARK  728  A    between atoms: _1560  and  _1561
REMARK  729  A    between atoms: _1561  and  _1562
REMARK  730  A    between atoms: _1561  and  _1564
REMARK  731  A    between atoms: _1566  and  _1567
REMARK  732  A    between atoms: _1567  and  _1568
REMARK  733  A    between atoms: _1567  and  _1570
REMARK  734  A    between atoms: _1570  and  _1571
REMARK  735  A    between atoms: _1571  and  _1572
REMARK  736  A    between atoms: _1575  and  _1576
REMARK  737  A    between atoms: _1576  and  _1577
REMARK  738  A    between atoms: _1576  and  _1579
REMARK  739  A    between atoms: _1579  and  _1580
REMARK  740  A    between atoms: _1586  and  _1587
REMARK  741  A    between atoms: _1587  and  _1588
REMARK  742  A    between atoms: _1587  and  _1590
REMARK  743  A    between atoms: _1590  and  _1591
REMARK  744  A    between atoms: _1594  and  _1595
REMARK  745  A    between atoms: _1595  and  _1596
REMARK  746  A    between atoms: _1598  and  _1599
REMARK  747  A    between atoms: _1599  and  _1600
REMARK  748  A    between atoms: _1599  and  _1602
REMARK  749  A    between atoms: _1602  and  _1603
REMARK  750  A    between atoms: _1611  and  _1612
REMARK  751  A    between atoms: _1617  and  _1618
REMARK  752  A    between atoms: _1618  and  _1619
REMARK  753  A    between atoms: _1618  and  _1621
REMARK  754  A    between atoms: _1621  and  _1622
REMARK  755  A    between atoms: _1625  and  _1626
REMARK  756  A    between atoms: _1626  and  _1627
REMARK  757  A    between atoms: _1626  and  _1629
REMARK  758  A    between atoms: _1632  and  _1633
REMARK  759  A    between atoms: _1633  and  _1634
REMARK  760  A    between atoms: _1633  and  _1636
REMARK  761  A    between atoms: _1636  and  _1637
REMARK  762  A    between atoms: _1640  and  _1641
REMARK  763  A    between atoms: _1641  and  _1642
REMARK  764  A    between atoms: _1641  and  _1644
REMARK  765  A    between atoms: _1644  and  _1645
REMARK  766  A    between atoms: _1651  and  _1652
REMARK  767  A    between atoms: _1652  and  _1653
REMARK  768  A    between atoms: _1652  and  _1655
REMARK  769  A    between atoms: _1658  and  _1659
REMARK  770  A    between atoms: _1659  and  _1660
REMARK  771  A    between atoms: _1659  and  _1662
REMARK  772  A    between atoms: _1662  and  _1663
REMARK  773  A    between atoms: _1663  and  _1664
REMARK  774  A    between atoms: _1667  and  _1668
REMARK  775  A    between atoms: _1668  and  _1669
REMARK  776  A    between atoms: _1668  and  _1671
REMARK  777  A    between atoms: _1671  and  _1672
REMARK  778  A    between atoms: _1672  and  _1673
REMARK  779  A    between atoms: _1673  and  _1674
REMARK                            x       y       z     vdW  Elec       q    Type
REMARK                         _______ _______ _______ _____ _____    ______ ____
ROOT
ATOM      1  O   HOH     1       7.282  39.889  37.792  0.00  0.00    +0.000 OA
ENDROOT
TORSDOF 0
REMARK  Name = /Users/mlugowska/PhD/ML_residence_time_prediction/protein_files/5NYH_protein.pdb
REMARK  779 active torsions:
REMARK  status: ('A' for Active; 'I' for Inactive)
REMARK    1  A    between atoms: _2  and  _3
REMARK    2  A    between atoms: _2  and  _5
REMARK    3  A    between atoms: _5  and  _6
REMARK    4  A    between atoms: _6  and  _7
REMARK    5  A    between atoms: _10  and  _11
REMARK    6  A    between atoms: _11  and  _12
REMARK    7  A    between atoms: _11  and  _14
REMARK    8  A    between atoms: _17  and  _18
REMARK    9  A    between atoms: _18  and  _19
REMARK   10  A    between atoms: _18  and  _21
REMARK   11  A    between atoms: _21  and  _22
REMARK   12  A    between atoms: _22  and  _23
REMARK   13  A    between atoms: _26  and  _27
REMARK   14  A    between atoms: _27  and  _28
REMARK   15  A    between atoms: _27  and  _30
REMARK   16  A    between atoms: _33  and  _34
REMARK   17  A    between atoms: _34  and  _35
REMARK   18  A    between atoms: _34  and  _37
REMARK   19  A    between atoms: _37  and  _38
REMARK   20  A    between atoms: _44  and  _45
REMARK   21  A    between atoms: _45  and  _46
REMARK   22  A    between atoms: _49  and  _50
REMARK   23  A    between atoms: _50  and  _51
REMARK   24  A    between atoms: _50  and  _53
REMARK   25  A    between atoms: _53  and  _54
REMARK   26  A    between atoms: _60  and  _61
REMARK   27  A    between atoms: _61  and  _62
REMARK   28  A    between atoms: _61  and  _64
REMARK   29  A    between atoms: _64  and  _65
REMARK   30  A    between atoms: _65  and  _66
REMARK   31  A    between atoms: _69  and  _70
REMARK   32  A    between atoms: _70  and  _71
REMARK   33  A    between atoms: _74  and  _75
REMARK   34  A    between atoms: _75  and  _76
REMARK   35  A    between atoms: _75  and  _78
REMARK   36  A    between atoms: _78  and  _79
REMARK   37  A    between atoms: _79  and  _80
REMARK   38  A    between atoms: _83  and  _84
REMARK   39  A    between atoms: _84  and  _85
REMARK   40  A    between atoms: _84  and  _87
REMARK   41  A    between atoms: _87  and  _88
REMARK   42  A    between atoms: _91  and  _92
REMARK   43  A    between atoms: _92  and  _93
REMARK   44  A    between atoms: _96  and  _97
REMARK   45  A    between atoms: _97  and  _98
REMARK   46  A    between atoms: _97  and  _100
REMARK   47  A    between atoms: _100  and  _101
REMARK   48  A    between atoms: _101  and  _102
REMARK   49  A    between atoms: _105  and  _106
REMARK   50  A    between atoms: _106  and  _107
REMARK   51  A    between atoms: _106  and  _109
REMARK   52  A    between atoms: _109  and  _110
REMARK   53  A    between atoms: _113  and  _114
REMARK   54  A    between atoms: _114  and  _115
REMARK   55  A    between atoms: _114  and  _117
REMARK   56  A    between atoms: _117  and  _118
REMARK   57  A    between atoms: _118  and  _119
REMARK   58  A    between atoms: _121  and  _122
REMARK   59  A    between atoms: _122  and  _123
REMARK   60  A    between atoms: _122  and  _125
REMARK   61  A    between atoms: _127  and  _128
REMARK   62  A    between atoms: _128  and  _129
REMARK   63  A    between atoms: _128  and  _131
REMARK   64  A    between atoms: _131  and  _132
REMARK   65  A    between atoms: _135  and  _136
REMARK   66  A    between atoms: _136  and  _137
REMARK   67  A    between atoms: _136  and  _139
REMARK   68  A    between atoms: _139  and  _140
REMARK   69  A    between atoms: _143  and  _144
REMARK   70  A    between atoms: _144  and  _145
REMARK   71  A    between atoms: _144  and  _147
REMARK   72  A    between atoms: _147  and  _148
REMARK   73  A    between atoms: _151  and  _152
REMARK   74  A    between atoms: _152  and  _153
REMARK   75  A    between atoms: _152  and  _155
REMARK   76  A    between atoms: _155  and  _156
REMARK   77  A    between atoms: _159  and  _160
REMARK   78  A    between atoms: _160  and  _161
REMARK   79  A    between atoms: _160  and  _163
REMARK   80  A    between atoms: _166  and  _167
REMARK   81  A    between atoms: _167  and  _168
REMARK   82  A    between atoms: _167  and  _170
REMARK   83  A    between atoms: _170  and  _171
REMARK   84  A    between atoms: _177  and  _178
REMARK   85  A    between atoms: _178  and  _179
REMARK   86  A    between atoms: _178  and  _181
REMARK   87  A    between atoms: _181  and  _182
REMARK   88  A    between atoms: _189  and  _190
REMARK   89  A    between atoms: _190  and  _191
REMARK   90  A    between atoms: _190  and  _193
REMARK   91  A    between atoms: _195  and  _196
REMARK   92  A    between atoms: _196  and  _197
REMARK   93  A    between atoms: _196  and  _199
REMARK   94  A    between atoms: _199  and  _200
REMARK   95  A    between atoms: _203  and  _204
REMARK   96  A    between atoms: _204  and  _205
REMARK   97  A    between atoms: _204  and  _207
REMARK   98  A    between atoms: _207  and  _208
REMARK   99  A    between atoms: _208  and  _209
REMARK  100  A    between atoms: _209  and  _210
REMARK  101  A    between atoms: _212  and  _213
REMARK  102  A    between atoms: _213  and  _214
REMARK  103  A    between atoms: _213  and  _216
REMARK  104  A    between atoms: _216  and  _217
REMARK  105  A    between atoms: _217  and  _218
REMARK  106  A    between atoms: _221  and  _222
REMARK  107  A    between atoms: _222  and  _223
REMARK  108  A    between atoms: _222  and  _225
REMARK  109  A    between atoms: _225  and  _226
REMARK  110  A    between atoms: _229  and  _230
REMARK  111  A    between atoms: _230  and  _231
REMARK  112  A    between atoms: _230  and  _233
REMARK  113  A    between atoms: _233  and  _234
REMARK  114  A    between atoms: _240  and  _241
REMARK  115  A    between atoms: _241  and  _242
REMARK  116  A    between atoms: _241  and  _244
REMARK  117  A    between atoms: _244  and  _245
REMARK  118  A    between atoms: _248  and  _249
REMARK  119  A    between atoms: _249  and  _250
REMARK  120  A    between atoms: _249  and  _252
REMARK  121  A    between atoms: _252  and  _253
REMARK  122  A    between atoms: _253  and  _254
REMARK  123  A    between atoms: _254  and  _255
REMARK  124  A    between atoms: _259  and  _260
REMARK  125  A    between atoms: _260  and  _261
REMARK  126  A    between atoms: _260  and  _263
REMARK  127  A    between atoms: _263  and  _264
REMARK  128  A    between atoms: _264  and  _265
REMARK  129  A    between atoms: _268  and  _269
REMARK  130  A    between atoms: _269  and  _270
REMARK  131  A    between atoms: _269  and  _272
REMARK  132  A    between atoms: _272  and  _273
REMARK  133  A    between atoms: _276  and  _277
REMARK  134  A    between atoms: _277  and  _278
REMARK  135  A    between atoms: _277  and  _280
REMARK  136  A    between atoms: _280  and  _281
REMARK  137  A    between atoms: _284  and  _285
REMARK  138  A    between atoms: _285  and  _286
REMARK  139  A    between atoms: _285  and  _288
REMARK  140  A    between atoms: _290  and  _291
REMARK  141  A    between atoms: _291  and  _292
REMARK  142  A    between atoms: _291  and  _294
REMARK  143  A    between atoms: _294  and  _295
REMARK  144  A    between atoms: _298  and  _299
REMARK  145  A    between atoms: _299  and  _300
REMARK  146  A    between atoms: _299  and  _302
REMARK  147  A    between atoms: _304  and  _305
REMARK  148  A    between atoms: _305  and  _306
REMARK  149  A    between atoms: _305  and  _308
REMARK  150  A    between atoms: _310  and  _311
REMARK  151  A    between atoms: _311  and  _312
REMARK  152  A    between atoms: _311  and  _314
REMARK  153  A    between atoms: _314  and  _315
REMARK  154  A    between atoms: _318  and  _319
REMARK  155  A    between atoms: _319  and  _320
REMARK  156  A    between atoms: _323  and  _324
REMARK  157  A    between atoms: _324  and  _325
REMARK  158  A    between atoms: _324  and  _327
REMARK  159  A    between atoms: _327  and  _328
REMARK  160  A    between atoms: _331  and  _332
REMARK  161  A    between atoms: _332  and  _333
REMARK  162  A    between atoms: _332  and  _335
REMARK  163  A    between atoms: _335  and  _336
REMARK  164  A    between atoms: _339  and  _340
REMARK  165  A    between atoms: _340  and  _341
REMARK  166  A    between atoms: _340  and  _343
REMARK  167  A    between atoms: _343  and  _344
REMARK  168  A    between atoms: _344  and  _345
REMARK  169  A    between atoms: _345  and  _346
REMARK  170  A    between atoms: _348  and  _349
REMARK  171  A    between atoms: _349  and  _350
REMARK  172  A    between atoms: _349  and  _352
REMARK  173  A    between atoms: _352  and  _353
REMARK  174  A    between atoms: _356  and  _357
REMARK  175  A    between atoms: _357  and  _358
REMARK  176  A    between atoms: _357  and  _360
REMARK  177  A    between atoms: _360  and  _361
REMARK  178  A    between atoms: _361  and  _362
REMARK  179  A    between atoms: _362  and  _363
REMARK  180  A    between atoms: _367  and  _368
REMARK  181  A    between atoms: _368  and  _369
REMARK  182  A    between atoms: _368  and  _371
REMARK  183  A    between atoms: _371  and  _372
REMARK  184  A    between atoms: _379  and  _380
REMARK  185  A    between atoms: _380  and  _381
REMARK  186  A    between atoms: _380  and  _383
REMARK  187  A    between atoms: _383  and  _384
REMARK  188  A    between atoms: _384  and  _385
REMARK  189  A    between atoms: _388  and  _389
REMARK  190  A    between atoms: _389  and  _390
REMARK  191  A    between atoms: _389  and  _392
REMARK  192  A    between atoms: _394  and  _395
REMARK  193  A    between atoms: _395  and  _396
REMARK  194  A    between atoms: _395  and  _398
REMARK  195  A    between atoms: _398  and  _399
REMARK  196  A    between atoms: _402  and  _403
REMARK  197  A    between atoms: _403  and  _404
REMARK  198  A    between atoms: _403  and  _406
REMARK  199  A    between atoms: _409  and  _410
REMARK  200  A    between atoms: _410  and  _411
REMARK  201  A    between atoms: _410  and  _413
REMARK  202  A    between atoms: _413  and  _414
REMARK  203  A    between atoms: _418  and  _419
REMARK  204  A    between atoms: _424  and  _425
REMARK  205  A    between atoms: _425  and  _426
REMARK  206  A    between atoms: _425  and  _428
REMARK  207  A    between atoms: _430  and  _431
REMARK  208  A    between atoms: _431  and  _432
REMARK  209  A    between atoms: _431  and  _434
REMARK  210  A    between atoms: _434  and  _435
REMARK  211  A    between atoms: _435  and  _436
REMARK  212  A    between atoms: _436  and  _437
REMARK  213  A    between atoms: _439  and  _440
REMARK  214  A    between atoms: _440  and  _441
REMARK  215  A    between atoms: _440  and  _443
REMARK  216  A    between atoms: _443  and  _444
REMARK  217  A    between atoms: _447  and  _448
REMARK  218  A    between atoms: _448  and  _449
REMARK  219  A    between atoms: _448  and  _451
REMARK  220  A    between atoms: _451  and  _452
REMARK  221  A    between atoms: _455  and  _456
REMARK  222  A    between atoms: _456  and  _457
REMARK  223  A    between atoms: _456  and  _459
REMARK  224  A    between atoms: _461  and  _462
REMARK  225  A    between atoms: _462  and  _463
REMARK  226  A    between atoms: _465  and  _466
REMARK  227  A    between atoms: _466  and  _467
REMARK  228  A    between atoms: _466  and  _469
REMARK  229  A    between atoms: _469  and  _470
REMARK  230  A    between atoms: _470  and  _471
REMARK  231  A    between atoms: _471  and  _472
REMARK  232  A    between atoms: _474  and  _475
REMARK  233  A    between atoms: _475  and  _476
REMARK  234  A    between atoms: _475  and  _478
REMARK  235  A    between atoms: _478  and  _479
REMARK  236  A    between atoms: _479  and  _480
REMARK  237  A    between atoms: _483  and  _484
REMARK  238  A    between atoms: _484  and  _485
REMARK  239  A    between atoms: _484  and  _487
REMARK  240  A    between atoms: _487  and  _488
REMARK  241  A    between atoms: _491  and  _492
REMARK  242  A    between atoms: _492  and  _493
REMARK  243  A    between atoms: _492  and  _495
REMARK  244  A    between atoms: _495  and  _496
REMARK  245  A    between atoms: _501  and  _502
REMARK  246  A    between atoms: _502  and  _503
REMARK  247  A    between atoms: _502  and  _505
REMARK  248  A    between atoms: _505  and  _506
REMARK  249  A    between atoms: _509  and  _510
REMARK  250  A    between atoms: _510  and  _511
REMARK  251  A    between atoms: _510  and  _513
REMARK  252  A    between atoms: _513  and  _514
REMARK  253  A    between atoms: _517  and  _518
REMARK  254  A    between atoms: _518  and  _519
REMARK  255  A    between atoms: _518  and  _521
REMARK  256  A    between atoms: _521  and  _522
REMARK  257  A    between atoms: _525  and  _526
REMARK  258  A    between atoms: _526  and  _527
REMARK  259  A    between atoms: _526  and  _529
REMARK  260  A    between atoms: _529  and  _530
REMARK  261  A    between atoms: _534  and  _535
REMARK  262  A    between atoms: _540  and  _541
REMARK  263  A    between atoms: _541  and  _542
REMARK  264  A    between atoms: _541  and  _544
REMARK  265  A    between atoms: _544  and  _545
REMARK  266  A    between atoms: _548  and  _549
REMARK  267  A    between atoms: _549  and  _552
REMARK  268  A    between atoms: _552  and  _553
REMARK  269  A    between atoms: _553  and  _554
REMARK  270  A    between atoms: _554  and  _555
REMARK  271  A    between atoms: _568  and  _569
REMARK  272  A    between atoms: _576  and  _577
REMARK  273  A    between atoms: _576  and  _579
REMARK  274  A    between atoms: _579  and  _580
REMARK  275  A    between atoms: _583  and  _584
REMARK  276  A    between atoms: _584  and  _585
REMARK  277  A    between atoms: _584  and  _587
REMARK  278  A    between atoms: _587  and  _588
REMARK  279  A    between atoms: _588  and  _589
REMARK  280  A    between atoms: _589  and  _590
REMARK  281  A    between atoms: _594  and  _595
REMARK  282  A    between atoms: _595  and  _596
REMARK  283  A    between atoms: _595  and  _598
REMARK  284  A    between atoms: _601  and  _602
REMARK  285  A    between atoms: _602  and  _603
REMARK  286  A    between atoms: _602  and  _605
REMARK  287  A    between atoms: _605  and  _606
REMARK  288  A    between atoms: _609  and  _610
REMARK  289  A    between atoms: _610  and  _611
REMARK  290  A    between atoms: _610  and  _613
REMARK  291  A    between atoms: _616  and  _617
REMARK  292  A    between atoms: _617  and  _618
REMARK  293  A    between atoms: _617  and  _620
REMARK  294  A    between atoms: _620  and  _621
REMARK  295  A    between atoms: _624  and  _625
REMARK  296  A    between atoms: _625  and  _626
REMARK  297  A    between atoms: _625  and  _628
REMARK  298  A    between atoms: _631  and  _632
REMARK  299  A    between atoms: _632  and  _633
REMARK  300  A    between atoms: _632  and  _635
REMARK  301  A    between atoms: _635  and  _636
REMARK  302  A    between atoms: _639  and  _640
REMARK  303  A    between atoms: _640  and  _641
REMARK  304  A    between atoms: _640  and  _643
REMARK  305  A    between atoms: _646  and  _647
REMARK  306  A    between atoms: _647  and  _648
REMARK  307  A    between atoms: _650  and  _651
REMARK  308  A    between atoms: _651  and  _652
REMARK  309  A    between atoms: _651  and  _654
REMARK  310  A    between atoms: _654  and  _655
REMARK  311  A    between atoms: _658  and  _659
REMARK  312  A    between atoms: _659  and  _660
REMARK  313  A    between atoms: _662  and  _663
REMARK  314  A    between atoms: _663  and  _664
REMARK  315  A    between atoms: _663  and  _666
REMARK  316  A    between atoms: _666  and  _667
REMARK  317  A    between atoms: _667  and  _668
REMARK  318  A    between atoms: _670  and  _671
REMARK  319  A    between atoms: _671  and  _672
REMARK  320  A    between atoms: _671  and  _674
REMARK  321  A    between atoms: _677  and  _678
REMARK  322  A    between atoms: _678  and  _679
REMARK  323  A    between atoms: _678  and  _681
REMARK  324  A    between atoms: _681  and  _682
REMARK  325  A    between atoms: _682  and  _683
REMARK  326  A    between atoms: _683  and  _684
REMARK  327  A    between atoms: _686  and  _687
REMARK  328  A    between atoms: _687  and  _688
REMARK  329  A    between atoms: _691  and  _692
REMARK  330  A    between atoms: _692  and  _693
REMARK  331  A    between atoms: _692  and  _695
REMARK  332  A    between atoms: _695  and  _696
REMARK  333  A    between atoms: _699  and  _700
REMARK  334  A    between atoms: _700  and  _701
REMARK  335  A    between atoms: _700  and  _703
REMARK  336  A    between atoms: _703  and  _704
REMARK  337  A    between atoms: _707  and  _708
REMARK  338  A    between atoms: _708  and  _709
REMARK  339  A    between atoms: _708  and  _711
REMARK  340  A    between atoms: _711  and  _712
REMARK  341  A    between atoms: _715  and  _716
REMARK  342  A    between atoms: _716  and  _717
REMARK  343  A    between atoms: _716  and  _719
REMARK  344  A    between atoms: _719  and  _720
REMARK  345  A    between atoms: _723  and  _724
REMARK  346  A    between atoms: _724  and  _725
REMARK  347  A    between atoms: _724  and  _727
REMARK  348  A    between atoms: _727  and  _728
REMARK  349  A    between atoms: _731  and  _732
REMARK  350  A    between atoms: _732  and  _733
REMARK  351  A    between atoms: _732  and  _735
REMARK  352  A    between atoms: _735  and  _736
REMARK  353  A    between atoms: _739  and  _740
REMARK  354  A    between atoms: _740  and  _741
REMARK  355  A    between atoms: _743  and  _744
REMARK  356  A    between atoms: _744  and  _745
REMARK  357  A    between atoms: _744  and  _747
REMARK  358  A    between atoms: _750  and  _751
REMARK  359  A    between atoms: _751  and  _752
REMARK  360  A    between atoms: _751  and  _754
REMARK  361  A    between atoms: _754  and  _755
REMARK  362  A    between atoms: _758  and  _759
REMARK  363  A    between atoms: _759  and  _760
REMARK  364  A    between atoms: _763  and  _764
REMARK  365  A    between atoms: _764  and  _765
REMARK  366  A    between atoms: _764  and  _767
REMARK  367  A    between atoms: _767  and  _768
REMARK  368  A    between atoms: _768  and  _769
REMARK  369  A    between atoms: _769  and  _770
REMARK  370  A    between atoms: _772  and  _773
REMARK  371  A    between atoms: _773  and  _774
REMARK  372  A    between atoms: _773  and  _776
REMARK  373  A    between atoms: _778  and  _779
REMARK  374  A    between atoms: _779  and  _780
REMARK  375  A    between atoms: _782  and  _783
REMARK  376  A    between atoms: _783  and  _784
REMARK  377  A    between atoms: _783  and  _786
REMARK  378  A    between atoms: _789  and  _790
REMARK  379  A    between atoms: _790  and  _791
REMARK  380  A    between atoms: _790  and  _793
REMARK  381  A    between atoms: _793  and  _794
REMARK  382  A    between atoms: _794  and  _795
REMARK  383  A    between atoms: _795  and  _796
REMARK  384  A    between atoms: _798  and  _799
REMARK  385  A    between atoms: _799  and  _800
REMARK  386  A    between atoms: _803  and  _804
REMARK  387  A    between atoms: _804  and  _805
REMARK  388  A    between atoms: _804  and  _807
REMARK  389  A    between atoms: _807  and  _808
REMARK  390  A    between atoms: _814  and  _815
REMARK  391  A    between atoms: _815  and  _816
REMARK  392  A    between atoms: _815  and  _818
REMARK  393  A    between atoms: _818  and  _819
REMARK  394  A    between atoms: _819  and  _820
REMARK  395  A    between atoms: _822  and  _823
REMARK  396  A    between atoms: _823  and  _824
REMARK  397  A    between atoms: _823  and  _826
REMARK  398  A    between atoms: _826  and  _827
REMARK  399  A    between atoms: _827  and  _828
REMARK  400  A    between atoms: _831  and  _832
REMARK  401  A    between atoms: _832  and  _833
REMARK  402  A    between atoms: _836  and  _837
REMARK  403  A    between atoms: _837  and  _838
REMARK  404  A    between atoms: _837  and  _840
REMARK  405  A    between atoms: _840  and  _841
REMARK  406  A    between atoms: _844  and  _845
REMARK  407  A    between atoms: _845  and  _846
REMARK  408  A    between atoms: _845  and  _848
REMARK  409  A    between atoms: _848  and  _849
REMARK  410  A    between atoms: _849  and  _850
REMARK  411  A    between atoms: _853  and  _854
REMARK  412  A    between atoms: _854  and  _855
REMARK  413  A    between atoms: _858  and  _859
REMARK  414  A    between atoms: _859  and  _860
REMARK  415  A    between atoms: _862  and  _863
REMARK  416  A    between atoms: _863  and  _864
REMARK  417  A    between atoms: _867  and  _868
REMARK  418  A    between atoms: _868  and  _869
REMARK  419  A    between atoms: _868  and  _871
REMARK  420  A    between atoms: _871  and  _872
REMARK  421  A    between atoms: _875  and  _876
REMARK  422  A    between atoms: _876  and  _877
REMARK  423  A    between atoms: _876  and  _879
REMARK  424  A    between atoms: _879  and  _880
REMARK  425  A    between atoms: _883  and  _884
REMARK  426  A    between atoms: _884  and  _887
REMARK  427  A    between atoms: _906  and  _907
REMARK  428  A    between atoms: _906  and  _909
REMARK  429  A    between atoms: _909  and  _910
REMARK  430  A    between atoms: _913  and  _914
REMARK  431  A    between atoms: _914  and  _915
REMARK  432  A    between atoms: _917  and  _918
REMARK  433  A    between atoms: _918  and  _919
REMARK  434  A    between atoms: _918  and  _921
REMARK  435  A    between atoms: _921  and  _922
REMARK  436  A    between atoms: _922  and  _923
REMARK  437  A    between atoms: _926  and  _927
REMARK  438  A    between atoms: _927  and  _928
REMARK  439  A    between atoms: _927  and  _930
REMARK  440  A    between atoms: _930  and  _931
REMARK  441  A    between atoms: _937  and  _938
REMARK  442  A    between atoms: _938  and  _939
REMARK  443  A    between atoms: _941  and  _942
REMARK  444  A    between atoms: _942  and  _943
REMARK  445  A    between atoms: _942  and  _945
REMARK  446  A    between atoms: _948  and  _949
REMARK  447  A    between atoms: _949  and  _950
REMARK  448  A    between atoms: _952  and  _953
REMARK  449  A    between atoms: _953  and  _954
REMARK  450  A    between atoms: _953  and  _956
REMARK  451  A    between atoms: _956  and  _957
REMARK  452  A    between atoms: _963  and  _964
REMARK  453  A    between atoms: _964  and  _965
REMARK  454  A    between atoms: _964  and  _967
REMARK  455  A    between atoms: _967  and  _968
REMARK  456  A    between atoms: _975  and  _976
REMARK  457  A    between atoms: _976  and  _977
REMARK  458  A    between atoms: _976  and  _979
REMARK  459  A    between atoms: _981  and  _982
REMARK  460  A    between atoms: _982  and  _983
REMARK  461  A    between atoms: _986  and  _987
REMARK  462  A    between atoms: _987  and  _988
REMARK  463  A    between atoms: _987  and  _990
REMARK  464  A    between atoms: _990  and  _991
REMARK  465  A    between atoms: _998  and  _999
REMARK  466  A    between atoms: _999  and  _1000
REMARK  467  A    between atoms: _999  and  _1002
REMARK  468  A    between atoms: _1002  and  _1003
REMARK  469  A    between atoms: _1006  and  _1007
REMARK  470  A    between atoms: _1007  and  _1008
REMARK  471  A    between atoms: _1007  and  _1010
REMARK  472  A    between atoms: _1013  and  _1014
REMARK  473  A    between atoms: _1014  and  _1015
REMARK  474  A    between atoms: _1018  and  _1019
REMARK  475  A    between atoms: _1019  and  _1020
REMARK  476  A    between atoms: _1019  and  _1022
REMARK  477  A    between atoms: _1023  and  _1024
REMARK  478  A    between atoms: _1027  and  _1028
REMARK  479  A    between atoms: _1028  and  _1029
REMARK  480  A    between atoms: _1028  and  _1031
REMARK  481  A    between atoms: _1031  and  _1032
REMARK  482  A    between atoms: _1032  and  _1033
REMARK  483  A    between atoms: _1033  and  _1034
REMARK  484  A    between atoms: _1036  and  _1037
REMARK  485  A    between atoms: _1037  and  _1038
REMARK  486  A    between atoms: _1037  and  _1040
REMARK  487  A    between atoms: _1043  and  _1044
REMARK  488  A    between atoms: _1044  and  _1045
REMARK  489  A    between atoms: _1044  and  _1047
REMARK  490  A    between atoms: _1050  and  _1051
REMARK  491  A    between atoms: _1051  and  _1052
REMARK  492  A    between atoms: _1051  and  _1054
REMARK  493  A    between atoms: _1057  and  _1058
REMARK  494  A    between atoms: _1058  and  _1059
REMARK  495  A    between atoms: _1058  and  _1061
REMARK  496  A    between atoms: _1061  and  _1062
REMARK  497  A    between atoms: _1065  and  _1066
REMARK  498  A    between atoms: _1066  and  _1067
REMARK  499  A    between atoms: _1066  and  _1069
REMARK  500  A    between atoms: _1072  and  _1073
REMARK  501  A    between atoms: _1073  and  _1074
REMARK  502  A    between atoms: _1073  and  _1076
REMARK  503  A    between atoms: _1076  and  _1077
REMARK  504  A    between atoms: _1077  and  _1078
REMARK  505  A    between atoms: _1078  and  _1079
REMARK  506  A    between atoms: _1081  and  _1082
REMARK  507  A    between atoms: _1082  and  _1083
REMARK  508  A    between atoms: _1082  and  _1085
REMARK  509  A    between atoms: _1085  and  _1086
REMARK  510  A    between atoms: _1091  and  _1092
REMARK  511  A    between atoms: _1092  and  _1093
REMARK  512  A    between atoms: _1092  and  _1095
REMARK  513  A    between atoms: _1095  and  _1096
REMARK  514  A    between atoms: _1099  and  _1100
REMARK  515  A    between atoms: _1100  and  _1101
REMARK  516  A    between atoms: _1100  and  _1103
REMARK  517  A    between atoms: _1103  and  _1104
REMARK  518  A    between atoms: _1107  and  _1108
REMARK  519  A    between atoms: _1108  and  _1111
REMARK  520  A    between atoms: _1111  and  _1112
REMARK  521  A    between atoms: _1125  and  _1127
REMARK  522  A    between atoms: _1134  and  _1135
REMARK  523  A    between atoms: _1134  and  _1137
REMARK  524  A    between atoms: _1137  and  _1138
REMARK  525  A    between atoms: _1138  and  _1139
REMARK  526  A    between atoms: _1142  and  _1143
REMARK  527  A    between atoms: _1143  and  _1144
REMARK  528  A    between atoms: _1143  and  _1146
REMARK  529  A    between atoms: _1146  and  _1147
REMARK  530  A    between atoms: _1154  and  _1155
REMARK  531  A    between atoms: _1155  and  _1156
REMARK  532  A    between atoms: _1159  and  _1160
REMARK  533  A    between atoms: _1160  and  _1161
REMARK  534  A    between atoms: _1160  and  _1163
REMARK  535  A    between atoms: _1163  and  _1164
REMARK  536  A    between atoms: _1173  and  _1174
REMARK  537  A    between atoms: _1174  and  _1175
REMARK  538  A    between atoms: _1174  and  _1177
REMARK  539  A    between atoms: _1177  and  _1178
REMARK  540  A    between atoms: _1178  and  _1179
REMARK  541  A    between atoms: _1182  and  _1183
REMARK  542  A    between atoms: _1183  and  _1184
REMARK  543  A    between atoms: _1183  and  _1186
REMARK  544  A    between atoms: _1188  and  _1189
REMARK  545  A    between atoms: _1189  and  _1190
REMARK  546  A    between atoms: _1189  and  _1192
REMARK  547  A    between atoms: _1194  and  _1195
REMARK  548  A    between atoms: _1195  and  _1196
REMARK  549  A    between atoms: _1199  and  _1200
REMARK  550  A    between atoms: _1200  and  _1201
REMARK  551  A    between atoms: _1203  and  _1204
REMARK  552  A    between atoms: _1204  and  _1205
REMARK  553  A    between atoms: _1207  and  _1208
REMARK  554  A    between atoms: _1208  and  _1209
REMARK  555  A    between atoms: _1208  and  _1211
REMARK  556  A    between atoms: _1213  and  _1214
REMARK  557  A    between atoms: _1214  and  _1215
REMARK  558  A    between atoms: _1214  and  _1217
REMARK  559  A    between atoms: _1217  and  _1218
REMARK  560  A    between atoms: _1224  and  _1225
REMARK  561  A    between atoms: _1225  and  _1226
REMARK  562  A    between atoms: _1225  and  _1228
REMARK  563  A    between atoms: _1231  and  _1232
REMARK  564  A    between atoms: _1232  and  _1233
REMARK  565  A    between atoms: _1232  and  _1235
REMARK  566  A    between atoms: _1238  and  _1239
REMARK  567  A    between atoms: _1239  and  _1240
REMARK  568  A    between atoms: _1239  and  _1242
REMARK  569  A    between atoms: _1242  and  _1243
REMARK  570  A    between atoms: _1243  and  _1244
REMARK  571  A    between atoms: _1244  and  _1245
REMARK  572  A    between atoms: _1249  and  _1250
REMARK  573  A    between atoms: _1250  and  _1251
REMARK  574  A    between atoms: _1250  and  _1253
REMARK  575  A    between atoms: _1256  and  _1257
REMARK  576  A    between atoms: _1257  and  _1258
REMARK  577  A    between atoms: _1257  and  _1260
REMARK  578  A    between atoms: _1260  and  _1261
REMARK  579  A    between atoms: _1264  and  _1265
REMARK  580  A    between atoms: _1265  and  _1266
REMARK  581  A    between atoms: _1265  and  _1268
REMARK  582  A    between atoms: _1271  and  _1272
REMARK  583  A    between atoms: _1272  and  _1273
REMARK  584  A    between atoms: _1275  and  _1276
REMARK  585  A    between atoms: _1276  and  _1277
REMARK  586  A    between atoms: _1276  and  _1279
REMARK  587  A    between atoms: _1279  and  _1280
REMARK  588  A    between atoms: _1280  and  _1281
REMARK  589  A    between atoms: _1285  and  _1286
REMARK  590  A    between atoms: _1291  and  _1293
REMARK  591  A    between atoms: _1298  and  _1299
REMARK  592  A    between atoms: _1299  and  _1301
REMARK  593  A    between atoms: _1300  and  _1301
REMARK  594  A    between atoms: _1304  and  _1305
REMARK  595  A    between atoms: _1305  and  _1306
REMARK  596  A    between atoms: _1308  and  _1309
REMARK  597  A    between atoms: _1309  and  _1310
REMARK  598  A    between atoms: _1309  and  _1312
REMARK  599  A    between atoms: _1312  and  _1313
REMARK  600  A    between atoms: _1313  and  _1314
REMARK  601  A    between atoms: _1314  and  _1315
REMARK  602  A    between atoms: _1319  and  _1320
REMARK  603  A    between atoms: _1320  and  _1321
REMARK  604  A    between atoms: _1323  and  _1324
REMARK  605  A    between atoms: _1324  and  _1325
REMARK  606  A    between atoms: _1324  and  _1327
REMARK  607  A    between atoms: _1330  and  _1331
REMARK  608  A    between atoms: _1331  and  _1332
REMARK  609  A    between atoms: _1331  and  _1334
REMARK  610  A    between atoms: _1334  and  _1335
REMARK  611  A    between atoms: _1335  and  _1336
REMARK  612  A    between atoms: _1336  and  _1337
REMARK  613  A    between atoms: _1339  and  _1340
REMARK  614  A    between atoms: _1340  and  _1341
REMARK  615  A    between atoms: _1340  and  _1343
REMARK  616  A    between atoms: _1346  and  _1347
REMARK  617  A    between atoms: _1347  and  _1348
REMARK  618  A    between atoms: _1347  and  _1350
REMARK  619  A    between atoms: _1350  and  _1351
REMARK  620  A    between atoms: _1354  and  _1355
REMARK  621  A    between atoms: _1355  and  _1356
REMARK  622  A    between atoms: _1355  and  _1358
REMARK  623  A    between atoms: _1358  and  _1359
REMARK  624  A    between atoms: _1362  and  _1363
REMARK  625  A    between atoms: _1363  and  _1364
REMARK  626  A    between atoms: _1363  and  _1366
REMARK  627  A    between atoms: _1366  and  _1367
REMARK  628  A    between atoms: _1372  and  _1373
REMARK  629  A    between atoms: _1373  and  _1374
REMARK  630  A    between atoms: _1373  and  _1376
REMARK  631  A    between atoms: _1376  and  _1377
REMARK  632  A    between atoms: _1380  and  _1381
REMARK  633  A    between atoms: _1381  and  _1382
REMARK  634  A    between atoms: _1381  and  _1384
REMARK  635  A    between atoms: _1384  and  _1385
REMARK  636  A    between atoms: _1385  and  _1386
REMARK  637  A    between atoms: _1386  and  _1387
REMARK  638  A    between atoms: _1389  and  _1390
REMARK  639  A    between atoms: _1390  and  _1391
REMARK  640  A    between atoms: _1390  and  _1393
REMARK  641  A    between atoms: _1393  and  _1394
REMARK  642  A    between atoms: _1394  and  _1395
REMARK  643  A    between atoms: _1398  and  _1399
REMARK  644  A    between atoms: _1399  and  _1400
REMARK  645  A    between atoms: _1399  and  _1402
REMARK  646  A    between atoms: _1402  and  _1403
REMARK  647  A    between atoms: _1406  and  _1407
REMARK  648  A    between atoms: _1407  and  _1408
REMARK  649  A    between atoms: _1407  and  _1410
REMARK  650  A    between atoms: _1410  and  _1411
REMARK  651  A    between atoms: _1411  and  _1412
REMARK  652  A    between atoms: _1415  and  _1416
REMARK  653  A    between atoms: _1416  and  _1417
REMARK  654  A    between atoms: _1416  and  _1419
REMARK  655  A    between atoms: _1422  and  _1423
REMARK  656  A    between atoms: _1423  and  _1424
REMARK  657  A    between atoms: _1423  and  _1426
REMARK  658  A    between atoms: _1426  and  _1427
REMARK  659  A    between atoms: _1427  and  _1428
REMARK  660  A    between atoms: _1431  and  _1432
REMARK  661  A    between atoms: _1432  and  _1433
REMARK  662  A    between atoms: _1432  and  _1435
REMARK  663  A    between atoms: _1435  and  _1436
REMARK  664  A    between atoms: _1443  and  _1444
REMARK  665  A    between atoms: _1444  and  _1445
REMARK  666  A    between atoms: _1444  and  _1447
REMARK  667  A    between atoms: _1447  and  _1448
REMARK  668  A    between atoms: _1451  and  _1452
REMARK  669  A    between atoms: _1452  and  _1453
REMARK  670  A    between atoms: _1452  and  _1455
REMARK  671  A    between atoms: _1455  and  _1456
REMARK  672  A    between atoms: _1456  and  _1457
REMARK  673  A    between atoms: _1460  and  _1461
REMARK  674  A    between atoms: _1461  and  _1462
REMARK  675  A    between atoms: _1461  and  _1464
REMARK  676  A    between atoms: _1464  and  _1465
REMARK  677  A    between atoms: _1465  and  _1466
REMARK  678  A    between atoms: _1469  and  _1470
REMARK  679  A    between atoms: _1470  and  _1471
REMARK  680  A    between atoms: _1470  and  _1473
REMARK  681  A    between atoms: _1473  and  _1474
REMARK  682  A    between atoms: _1474  and  _1475
REMARK  683  A    between atoms: _1475  and  _1476
REMARK  684  A    between atoms: _1480  and  _1481
REMARK  685  A    between atoms: _1481  and  _1482
REMARK  686  A    between atoms: _1481  and  _1484
REMARK  687  A    between atoms: _1484  and  _1485
REMARK  688  A    between atoms: _1485  and  _1486
REMARK  689  A    between atoms: _1486  and  _1487
REMARK  690  A    between atoms: _1491  and  _1492
REMARK  691  A    between atoms: _1492  and  _1493
REMARK  692  A    between atoms: _1492  and  _1495
REMARK  693  A    between atoms: _1495  and  _1496
REMARK  694  A    between atoms: _1499  and  _1500
REMARK  695  A    between atoms: _1500  and  _1501
REMARK  696  A    between atoms: _1500  and  _1503
REMARK  697  A    between atoms: _1503  and  _1504
REMARK  698  A    between atoms: _1504  and  _1505
REMARK  699  A    between atoms: _1505  and  _1506
REMARK  700  A    between atoms: _1508  and  _1509
REMARK  701  A    between atoms: _1509  and  _1510
REMARK  702  A    between atoms: _1509  and  _1512
REMARK  703  A    between atoms: _1512  and  _1513
REMARK  704  A    between atoms: _1513  and  _1514
REMARK  705  A    between atoms: _1517  and  _1518
REMARK  706  A    between atoms: _1518  and  _1519
REMARK  707  A    between atoms: _1518  and  _1521
REMARK  708  A    between atoms: _1521  and  _1522
REMARK  709  A    between atoms: _1525  and  _1526
REMARK  710  A    between atoms: _1526  and  _1527
REMARK  711  A    between atoms: _1526  and  _1529
REMARK  712  A    between atoms: _1532  and  _1533
REMARK  713  A    between atoms: _1533  and  _1534
REMARK  714  A    between atoms: _1533  and  _1536
REMARK  715  A    between atoms: _1536  and  _1537
REMARK  716  A    between atoms: _1537  and  _1538
REMARK  717  A    between atoms: _1538  and  _1539
REMARK  718  A    between atoms: _1541  and  _1542
REMARK  719  A    between atoms: _1542  and  _1543
REMARK  720  A    between atoms: _1542  and  _1545
REMARK  721  A    between atoms: _1545  and  _1546
REMARK  722  A    between atoms: _1546  and  _1547
REMARK  723  A    between atoms: _1547  and  _1548
REMARK  724  A    between atoms: _1550  and  _1551
REMARK  725  A    between atoms: _1551  and  _1552
REMARK  726  A    between atoms: _1551  and  _1554
REMARK  727  A    between atoms: _1554  and  _1555
REMARK  728  A    between atoms: _1560  and  _1561
REMARK  729  A    between atoms: _1561  and  _1562
REMARK  730  A    between atoms: _1561  and  _1564
REMARK  731  A    between atoms: _1566  and  _1567
REMARK  732  A    between atoms: _1567  and  _1568
REMARK  733  A    between atoms: _1567  and  _1570
REMARK  734  A    between atoms: _1570  and  _1571
REMARK  735  A    between atoms: _1571  and  _1572
REMARK  736  A    between atoms: _1575  and  _1576
REMARK  737  A    between atoms: _1576  and  _1577
REMARK  738  A    between atoms: _1576  and  _1579
REMARK  739  A    between atoms: _1579  and  _1580
REMARK  740  A    between atoms: _1586  and  _1587
REMARK  741  A    between atoms: _1587  and  _1588
REMARK  742  A    between atoms: _1587  and  _1590
REMARK  743  A    between atoms: _1590  and  _1591
REMARK  744  A    between atoms: _1594  and  _1595
REMARK  745  A    between atoms: _1595  and  _1596
REMARK  746  A    between atoms: _1598  and  _1599
REMARK  747  A    between atoms: _1599  and  _1600
REMARK  748  A    between atoms: _1599  and  _1602
REMARK  749  A    between atoms: _1602  and  _1603
REMARK  750  A    between atoms: _1611  and  _1612
REMARK  751  A    between atoms: _1617  and  _1618
REMARK  752  A    between atoms: _1618  and  _1619
REMARK  753  A    between atoms: _1618  and  _1621
REMARK  754  A    between atoms: _1621  and  _1622
REMARK  755  A    between atoms: _1625  and  _1626
REMARK  756  A    between atoms: _1626  and  _1627
REMARK  757  A    between atoms: _1626  and  _1629
REMARK  758  A    between atoms: _1632  and  _1633
REMARK  759  A    between atoms: _1633  and  _1634
REMARK  760  A    between atoms: _1633  and  _1636
REMARK  761  A    between atoms: _1636  and  _1637
REMARK  762  A    between atoms: _1640  and  _1641
REMARK  763  A    between atoms: _1641  and  _1642
REMARK  764  A    between atoms: _1641  and  _1644
REMARK  765  A    between atoms: _1644  and  _1645
REMARK  766  A    between atoms: _1651  and  _1652
REMARK  767  A    between atoms: _1652  and  _1653
REMARK  768  A    between atoms: _1652  and  _1655
REMARK  769  A    between atoms: _1658  and  _1659
REMARK  770  A    between atoms: _1659  and  _1660
REMARK  771  A    between atoms: _1659  and  _1662
REMARK  772  A    between atoms: _1662  and  _1663
REMARK  773  A    between atoms: _1663  and  _1664
REMARK  774  A    between atoms: _1667  and  _1668
REMARK  775  A    between atoms: _1668  and  _1669
REMARK  776  A    between atoms: _1668  and  _1671
REMARK  777  A    between atoms: _1671  and  _1672
REMARK  778  A    between atoms: _1672  and  _1673
REMARK  779  A    between atoms: _1673  and  _1674
REMARK                            x       y       z     vdW  Elec       q    Type
REMARK                         _______ _______ _______ _____ _____    ______ ____
ROOT
ATOM      1  C   UNL     1       8.001  40.003  40.680  0.00  0.00    +0.000 C 
ENDROOT
TORSDOF 0
REMARK  Name = /Users/mlugowska/PhD/ML_residence_time_prediction/protein_files/5NYH_protein.pdb
REMARK  779 active torsions:
REMARK  status: ('A' for Active; 'I' for Inactive)
REMARK    1  A    between atoms: _2  and  _3
REMARK    2  A    between atoms: _2  and  _5
REMARK    3  A    between atoms: _5  and  _6
REMARK    4  A    between atoms: _6  and  _7
REMARK    5  A    between atoms: _10  and  _11
REMARK    6  A    between atoms: _11  and  _12
REMARK    7  A    between atoms: _11  and  _14
REMARK    8  A    between atoms: _17  and  _18
REMARK    9  A    between atoms: _18  and  _19
REMARK   10  A    between atoms: _18  and  _21
REMARK   11  A    between atoms: _21  and  _22
REMARK   12  A    between atoms: _22  and  _23
REMARK   13  A    between atoms: _26  and  _27
REMARK   14  A    between atoms: _27  and  _28
REMARK   15  A    between atoms: _27  and  _30
REMARK   16  A    between atoms: _33  and  _34
REMARK   17  A    between atoms: _34  and  _35
REMARK   18  A    between atoms: _34  and  _37
REMARK   19  A    between atoms: _37  and  _38
REMARK   20  A    between atoms: _44  and  _45
REMARK   21  A    between atoms: _45  and  _46
REMARK   22  A    between atoms: _49  and  _50
REMARK   23  A    between atoms: _50  and  _51
REMARK   24  A    between atoms: _50  and  _53
REMARK   25  A    between atoms: _53  and  _54
REMARK   26  A    between atoms: _60  and  _61
REMARK   27  A    between atoms: _61  and  _62
REMARK   28  A    between atoms: _61  and  _64
REMARK   29  A    between atoms: _64  and  _65
REMARK   30  A    between atoms: _65  and  _66
REMARK   31  A    between atoms: _69  and  _70
REMARK   32  A    between atoms: _70  and  _71
REMARK   33  A    between atoms: _74  and  _75
REMARK   34  A    between atoms: _75  and  _76
REMARK   35  A    between atoms: _75  and  _78
REMARK   36  A    between atoms: _78  and  _79
REMARK   37  A    between atoms: _79  and  _80
REMARK   38  A    between atoms: _83  and  _84
REMARK   39  A    between atoms: _84  and  _85
REMARK   40  A    between atoms: _84  and  _87
REMARK   41  A    between atoms: _87  and  _88
REMARK   42  A    between atoms: _91  and  _92
REMARK   43  A    between atoms: _92  and  _93
REMARK   44  A    between atoms: _96  and  _97
REMARK   45  A    between atoms: _97  and  _98
REMARK   46  A    between atoms: _97  and  _100
REMARK   47  A    between atoms: _100  and  _101
REMARK   48  A    between atoms: _101  and  _102
REMARK   49  A    between atoms: _105  and  _106
REMARK   50  A    between atoms: _106  and  _107
REMARK   51  A    between atoms: _106  and  _109
REMARK   52  A    between atoms: _109  and  _110
REMARK   53  A    between atoms: _113  and  _114
REMARK   54  A    between atoms: _114  and  _115
REMARK   55  A    between atoms: _114  and  _117
REMARK   56  A    between atoms: _117  and  _118
REMARK   57  A    between atoms: _118  and  _119
REMARK   58  A    between atoms: _121  and  _122
REMARK   59  A    between atoms: _122  and  _123
REMARK   60  A    between atoms: _122  and  _125
REMARK   61  A    between atoms: _127  and  _128
REMARK   62  A    between atoms: _128  and  _129
REMARK   63  A    between atoms: _128  and  _131
REMARK   64  A    between atoms: _131  and  _132
REMARK   65  A    between atoms: _135  and  _136
REMARK   66  A    between atoms: _136  and  _137
REMARK   67  A    between atoms: _136  and  _139
REMARK   68  A    between atoms: _139  and  _140
REMARK   69  A    between atoms: _143  and  _144
REMARK   70  A    between atoms: _144  and  _145
REMARK   71  A    between atoms: _144  and  _147
REMARK   72  A    between atoms: _147  and  _148
REMARK   73  A    between atoms: _151  and  _152
REMARK   74  A    between atoms: _152  and  _153
REMARK   75  A    between atoms: _152  and  _155
REMARK   76  A    between atoms: _155  and  _156
REMARK   77  A    between atoms: _159  and  _160
REMARK   78  A    between atoms: _160  and  _161
REMARK   79  A    between atoms: _160  and  _163
REMARK   80  A    between atoms: _166  and  _167
REMARK   81  A    between atoms: _167  and  _168
REMARK   82  A    between atoms: _167  and  _170
REMARK   83  A    between atoms: _170  and  _171
REMARK   84  A    between atoms: _177  and  _178
REMARK   85  A    between atoms: _178  and  _179
REMARK   86  A    between atoms: _178  and  _181
REMARK   87  A    between atoms: _181  and  _182
REMARK   88  A    between atoms: _189  and  _190
REMARK   89  A    between atoms: _190  and  _191
REMARK   90  A    between atoms: _190  and  _193
REMARK   91  A    between atoms: _195  and  _196
REMARK   92  A    between atoms: _196  and  _197
REMARK   93  A    between atoms: _196  and  _199
REMARK   94  A    between atoms: _199  and  _200
REMARK   95  A    between atoms: _203  and  _204
REMARK   96  A    between atoms: _204  and  _205
REMARK   97  A    between atoms: _204  and  _207
REMARK   98  A    between atoms: _207  and  _208
REMARK   99  A    between atoms: _208  and  _209
REMARK  100  A    between atoms: _209  and  _210
REMARK  101  A    between atoms: _212  and  _213
REMARK  102  A    between atoms: _213  and  _214
REMARK  103  A    between atoms: _213  and  _216
REMARK  104  A    between atoms: _216  and  _217
REMARK  105  A    between atoms: _217  and  _218
REMARK  106  A    between atoms: _221  and  _222
REMARK  107  A    between atoms: _222  and  _223
REMARK  108  A    between atoms: _222  and  _225
REMARK  109  A    between atoms: _225  and  _226
REMARK  110  A    between atoms: _229  and  _230
REMARK  111  A    between atoms: _230  and  _231
REMARK  112  A    between atoms: _230  and  _233
REMARK  113  A    between atoms: _233  and  _234
REMARK  114  A    between atoms: _240  and  _241
REMARK  115  A    between atoms: _241  and  _242
REMARK  116  A    between atoms: _241  and  _244
REMARK  117  A    between atoms: _244  and  _245
REMARK  118  A    between atoms: _248  and  _249
REMARK  119  A    between atoms: _249  and  _250
REMARK  120  A    between atoms: _249  and  _252
REMARK  121  A    between atoms: _252  and  _253
REMARK  122  A    between atoms: _253  and  _254
REMARK  123  A    between atoms: _254  and  _255
REMARK  124  A    between atoms: _259  and  _260
REMARK  125  A    between atoms: _260  and  _261
REMARK  126  A    between atoms: _260  and  _263
REMARK  127  A    between atoms: _263  and  _264
REMARK  128  A    between atoms: _264  and  _265
REMARK  129  A    between atoms: _268  and  _269
REMARK  130  A    between atoms: _269  and  _270
REMARK  131  A    between atoms: _269  and  _272
REMARK  132  A    between atoms: _272  and  _273
REMARK  133  A    between atoms: _276  and  _277
REMARK  134  A    between atoms: _277  and  _278
REMARK  135  A    between atoms: _277  and  _280
REMARK  136  A    between atoms: _280  and  _281
REMARK  137  A    between atoms: _284  and  _285
REMARK  138  A    between atoms: _285  and  _286
REMARK  139  A    between atoms: _285  and  _288
REMARK  140  A    between atoms: _290  and  _291
REMARK  141  A    between atoms: _291  and  _292
REMARK  142  A    between atoms: _291  and  _294
REMARK  143  A    between atoms: _294  and  _295
REMARK  144  A    between atoms: _298  and  _299
REMARK  145  A    between atoms: _299  and  _300
REMARK  146  A    between atoms: _299  and  _302
REMARK  147  A    between atoms: _304  and  _305
REMARK  148  A    between atoms: _305  and  _306
REMARK  149  A    between atoms: _305  and  _308
REMARK  150  A    between atoms: _310  and  _311
REMARK  151  A    between atoms: _311  and  _312
REMARK  152  A    between atoms: _311  and  _314
REMARK  153  A    between atoms: _314  and  _315
REMARK  154  A    between atoms: _318  and  _319
REMARK  155  A    between atoms: _319  and  _320
REMARK  156  A    between atoms: _323  and  _324
REMARK  157  A    between atoms: _324  and  _325
REMARK  158  A    between atoms: _324  and  _327
REMARK  159  A    between atoms: _327  and  _328
REMARK  160  A    between atoms: _331  and  _332
REMARK  161  A    between atoms: _332  and  _333
REMARK  162  A    between atoms: _332  and  _335
REMARK  163  A    between atoms: _335  and  _336
REMARK  164  A    between atoms: _339  and  _340
REMARK  165  A    between atoms: _340  and  _341
REMARK  166  A    between atoms: _340  and  _343
REMARK  167  A    between atoms: _343  and  _344
REMARK  168  A    between atoms: _344  and  _345
REMARK  169  A    between atoms: _345  and  _346
REMARK  170  A    between atoms: _348  and  _349
REMARK  171  A    between atoms: _349  and  _350
REMARK  172  A    between atoms: _349  and  _352
REMARK  173  A    between atoms: _352  and  _353
REMARK  174  A    between atoms: _356  and  _357
REMARK  175  A    between atoms: _357  and  _358
REMARK  176  A    between atoms: _357  and  _360
REMARK  177  A    between atoms: _360  and  _361
REMARK  178  A    between atoms: _361  and  _362
REMARK  179  A    between atoms: _362  and  _363
REMARK  180  A    between atoms: _367  and  _368
REMARK  181  A    between atoms: _368  and  _369
REMARK  182  A    between atoms: _368  and  _371
REMARK  183  A    between atoms: _371  and  _372
REMARK  184  A    between atoms: _379  and  _380
REMARK  185  A    between atoms: _380  and  _381
REMARK  186  A    between atoms: _380  and  _383
REMARK  187  A    between atoms: _383  and  _384
REMARK  188  A    between atoms: _384  and  _385
REMARK  189  A    between atoms: _388  and  _389
REMARK  190  A    between atoms: _389  and  _390
REMARK  191  A    between atoms: _389  and  _392
REMARK  192  A    between atoms: _394  and  _395
REMARK  193  A    between atoms: _395  and  _396
REMARK  194  A    between atoms: _395  and  _398
REMARK  195  A    between atoms: _398  and  _399
REMARK  196  A    between atoms: _402  and  _403
REMARK  197  A    between atoms: _403  and  _404
REMARK  198  A    between atoms: _403  and  _406
REMARK  199  A    between atoms: _409  and  _410
REMARK  200  A    between atoms: _410  and  _411
REMARK  201  A    between atoms: _410  and  _413
REMARK  202  A    between atoms: _413  and  _414
REMARK  203  A    between atoms: _418  and  _419
REMARK  204  A    between atoms: _424  and  _425
REMARK  205  A    between atoms: _425  and  _426
REMARK  206  A    between atoms: _425  and  _428
REMARK  207  A    between atoms: _430  and  _431
REMARK  208  A    between atoms: _431  and  _432
REMARK  209  A    between atoms: _431  and  _434
REMARK  210  A    between atoms: _434  and  _435
REMARK  211  A    between atoms: _435  and  _436
REMARK  212  A    between atoms: _436  and  _437
REMARK  213  A    between atoms: _439  and  _440
REMARK  214  A    between atoms: _440  and  _441
REMARK  215  A    between atoms: _440  and  _443
REMARK  216  A    between atoms: _443  and  _444
REMARK  217  A    between atoms: _447  and  _448
REMARK  218  A    between atoms: _448  and  _449
REMARK  219  A    between atoms: _448  and  _451
REMARK  220  A    between atoms: _451  and  _452
REMARK  221  A    between atoms: _455  and  _456
REMARK  222  A    between atoms: _456  and  _457
REMARK  223  A    between atoms: _456  and  _459
REMARK  224  A    between atoms: _461  and  _462
REMARK  225  A    between atoms: _462  and  _463
REMARK  226  A    between atoms: _465  and  _466
REMARK  227  A    between atoms: _466  and  _467
REMARK  228  A    between atoms: _466  and  _469
REMARK  229  A    between atoms: _469  and  _470
REMARK  230  A    between atoms: _470  and  _471
REMARK  231  A    between atoms: _471  and  _472
REMARK  232  A    between atoms: _474  and  _475
REMARK  233  A    between atoms: _475  and  _476
REMARK  234  A    between atoms: _475  and  _478
REMARK  235  A    between atoms: _478  and  _479
REMARK  236  A    between atoms: _479  and  _480
REMARK  237  A    between atoms: _483  and  _484
REMARK  238  A    between atoms: _484  and  _485
REMARK  239  A    between atoms: _484  and  _487
REMARK  240  A    between atoms: _487  and  _488
REMARK  241  A    between atoms: _491  and  _492
REMARK  242  A    between atoms: _492  and  _493
REMARK  243  A    between atoms: _492  and  _495
REMARK  244  A    between atoms: _495  and  _496
REMARK  245  A    between atoms: _501  and  _502
REMARK  246  A    between atoms: _502  and  _503
REMARK  247  A    between atoms: _502  and  _505
REMARK  248  A    between atoms: _505  and  _506
REMARK  249  A    between atoms: _509  and  _510
REMARK  250  A    between atoms: _510  and  _511
REMARK  251  A    between atoms: _510  and  _513
REMARK  252  A    between atoms: _513  and  _514
REMARK  253  A    between atoms: _517  and  _518
REMARK  254  A    between atoms: _518  and  _519
REMARK  255  A    between atoms: _518  and  _521
REMARK  256  A    between atoms: _521  and  _522
REMARK  257  A    between atoms: _525  and  _526
REMARK  258  A    between atoms: _526  and  _527
REMARK  259  A    between atoms: _526  and  _529
REMARK  260  A    between atoms: _529  and  _530
REMARK  261  A    between atoms: _534  and  _535
REMARK  262  A    between atoms: _540  and  _541
REMARK  263  A    between atoms: _541  and  _542
REMARK  264  A    between atoms: _541  and  _544
REMARK  265  A    between atoms: _544  and  _545
REMARK  266  A    between atoms: _548  and  _549
REMARK  267  A    between atoms: _549  and  _552
REMARK  268  A    between atoms: _552  and  _553
REMARK  269  A    between atoms: _553  and  _554
REMARK  270  A    between atoms: _554  and  _555
REMARK  271  A    between atoms: _568  and  _569
REMARK  272  A    between atoms: _576  and  _577
REMARK  273  A    between atoms: _576  and  _579
REMARK  274  A    between atoms: _579  and  _580
REMARK  275  A    between atoms: _583  and  _584
REMARK  276  A    between atoms: _584  and  _585
REMARK  277  A    between atoms: _584  and  _587
REMARK  278  A    between atoms: _587  and  _588
REMARK  279  A    between atoms: _588  and  _589
REMARK  280  A    between atoms: _589  and  _590
REMARK  281  A    between atoms: _594  and  _595
REMARK  282  A    between atoms: _595  and  _596
REMARK  283  A    between atoms: _595  and  _598
REMARK  284  A    between atoms: _601  and  _602
REMARK  285  A    between atoms: _602  and  _603
REMARK  286  A    between atoms: _602  and  _605
REMARK  287  A    between atoms: _605  and  _606
REMARK  288  A    between atoms: _609  and  _610
REMARK  289  A    between atoms: _610  and  _611
REMARK  290  A    between atoms: _610  and  _613
REMARK  291  A    between atoms: _616  and  _617
REMARK  292  A    between atoms: _617  and  _618
REMARK  293  A    between atoms: _617  and  _620
REMARK  294  A    between atoms: _620  and  _621
REMARK  295  A    between atoms: _624  and  _625
REMARK  296  A    between atoms: _625  and  _626
REMARK  297  A    between atoms: _625  and  _628
REMARK  298  A    between atoms: _631  and  _632
REMARK  299  A    between atoms: _632  and  _633
REMARK  300  A    between atoms: _632  and  _635
REMARK  301  A    between atoms: _635  and  _636
REMARK  302  A    between atoms: _639  and  _640
REMARK  303  A    between atoms: _640  and  _641
REMARK  304  A    between atoms: _640  and  _643
REMARK  305  A    between atoms: _646  and  _647
REMARK  306  A    between atoms: _647  and  _648
REMARK  307  A    between atoms: _650  and  _651
REMARK  308  A    between atoms: _651  and  _652
REMARK  309  A    between atoms: _651  and  _654
REMARK  310  A    between atoms: _654  and  _655
REMARK  311  A    between atoms: _658  and  _659
REMARK  312  A    between atoms: _659  and  _660
REMARK  313  A    between atoms: _662  and  _663
REMARK  314  A    between atoms: _663  and  _664
REMARK  315  A    between atoms: _663  and  _666
REMARK  316  A    between atoms: _666  and  _667
REMARK  317  A    between atoms: _667  and  _668
REMARK  318  A    between atoms: _670  and  _671
REMARK  319  A    between atoms: _671  and  _672
REMARK  320  A    between atoms: _671  and  _674
REMARK  321  A    between atoms: _677  and  _678
REMARK  322  A    between atoms: _678  and  _679
REMARK  323  A    between atoms: _678  and  _681
REMARK  324  A    between atoms: _681  and  _682
REMARK  325  A    between atoms: _682  and  _683
REMARK  326  A    between atoms: _683  and  _684
REMARK  327  A    between atoms: _686  and  _687
REMARK  328  A    between atoms: _687  and  _688
REMARK  329  A    between atoms: _691  and  _692
REMARK  330  A    between atoms: _692  and  _693
REMARK  331  A    between atoms: _692  and  _695
REMARK  332  A    between atoms: _695  and  _696
REMARK  333  A    between atoms: _699  and  _700
REMARK  334  A    between atoms: _700  and  _701
REMARK  335  A    between atoms: _700  and  _703
REMARK  336  A    between atoms: _703  and  _704
REMARK  337  A    between atoms: _707  and  _708
REMARK  338  A    between atoms: _708  and  _709
REMARK  339  A    between atoms: _708  and  _711
REMARK  340  A    between atoms: _711  and  _712
REMARK  341  A    between atoms: _715  and  _716
REMARK  342  A    between atoms: _716  and  _717
REMARK  343  A    between atoms: _716  and  _719
REMARK  344  A    between atoms: _719  and  _720
REMARK  345  A    between atoms: _723  and  _724
REMARK  346  A    between atoms: _724  and  _725
REMARK  347  A    between atoms: _724  and  _727
REMARK  348  A    between atoms: _727  and  _728
REMARK  349  A    between atoms: _731  and  _732
REMARK  350  A    between atoms: _732  and  _733
REMARK  351  A    between atoms: _732  and  _735
REMARK  352  A    between atoms: _735  and  _736
REMARK  353  A    between atoms: _739  and  _740
REMARK  354  A    between atoms: _740  and  _741
REMARK  355  A    between atoms: _743  and  _744
REMARK  356  A    between atoms: _744  and  _745
REMARK  357  A    between atoms: _744  and  _747
REMARK  358  A    between atoms: _750  and  _751
REMARK  359  A    between atoms: _751  and  _752
REMARK  360  A    between atoms: _751  and  _754
REMARK  361  A    between atoms: _754  and  _755
REMARK  362  A    between atoms: _758  and  _759
REMARK  363  A    between atoms: _759  and  _760
REMARK  364  A    between atoms: _763  and  _764
REMARK  365  A    between atoms: _764  and  _765
REMARK  366  A    between atoms: _764  and  _767
REMARK  367  A    between atoms: _767  and  _768
REMARK  368  A    between atoms: _768  and  _769
REMARK  369  A    between atoms: _769  and  _770
REMARK  370  A    between atoms: _772  and  _773
REMARK  371  A    between atoms: _773  and  _774
REMARK  372  A    between atoms: _773  and  _776
REMARK  373  A    between atoms: _778  and  _779
REMARK  374  A    between atoms: _779  and  _780
REMARK  375  A    between atoms: _782  and  _783
REMARK  376  A    between atoms: _783  and  _784
REMARK  377  A    between atoms: _783  and  _786
REMARK  378  A    between atoms: _789  and  _790
REMARK  379  A    between atoms: _790  and  _791
REMARK  380  A    between atoms: _790  and  _793
REMARK  381  A    between atoms: _793  and  _794
REMARK  382  A    between atoms: _794  and  _795
REMARK  383  A    between atoms: _795  and  _796
REMARK  384  A    between atoms: _798  and  _799
REMARK  385  A    between atoms: _799  and  _800
REMARK  386  A    between atoms: _803  and  _804
REMARK  387  A    between atoms: _804  and  _805
REMARK  388  A    between atoms: _804  and  _807
REMARK  389  A    between atoms: _807  and  _808
REMARK  390  A    between atoms: _814  and  _815
REMARK  391  A    between atoms: _815  and  _816
REMARK  392  A    between atoms: _815  and  _818
REMARK  393  A    between atoms: _818  and  _819
REMARK  394  A    between atoms: _819  and  _820
REMARK  395  A    between atoms: _822  and  _823
REMARK  396  A    between atoms: _823  and  _824
REMARK  397  A    between atoms: _823  and  _826
REMARK  398  A    between atoms: _826  and  _827
REMARK  399  A    between atoms: _827  and  _828
REMARK  400  A    between atoms: _831  and  _832
REMARK  401  A    between atoms: _832  and  _833
REMARK  402  A    between atoms: _836  and  _837
REMARK  403  A    between atoms: _837  and  _838
REMARK  404  A    between atoms: _837  and  _840
REMARK  405  A    between atoms: _840  and  _841
REMARK  406  A    between atoms: _844  and  _845
REMARK  407  A    between atoms: _845  and  _846
REMARK  408  A    between atoms: _845  and  _848
REMARK  409  A    between atoms: _848  and  _849
REMARK  410  A    between atoms: _849  and  _850
REMARK  411  A    between atoms: _853  and  _854
REMARK  412  A    between atoms: _854  and  _855
REMARK  413  A    between atoms: _858  and  _859
REMARK  414  A    between atoms: _859  and  _860
REMARK  415  A    between atoms: _862  and  _863
REMARK  416  A    between atoms: _863  and  _864
REMARK  417  A    between atoms: _867  and  _868
REMARK  418  A    between atoms: _868  and  _869
REMARK  419  A    between atoms: _868  and  _871
REMARK  420  A    between atoms: _871  and  _872
REMARK  421  A    between atoms: _875  and  _876
REMARK  422  A    between atoms: _876  and  _877
REMARK  423  A    between atoms: _876  and  _879
REMARK  424  A    between atoms: _879  and  _880
REMARK  425  A    between atoms: _883  and  _884
REMARK  426  A    between atoms: _884  and  _887
REMARK  427  A    between atoms: _906  and  _907
REMARK  428  A    between atoms: _906  and  _909
REMARK  429  A    between atoms: _909  and  _910
REMARK  430  A    between atoms: _913  and  _914
REMARK  431  A    between atoms: _914  and  _915
REMARK  432  A    between atoms: _917  and  _918
REMARK  433  A    between atoms: _918  and  _919
REMARK  434  A    between atoms: _918  and  _921
REMARK  435  A    between atoms: _921  and  _922
REMARK  436  A    between atoms: _922  and  _923
REMARK  437  A    between atoms: _926  and  _927
REMARK  438  A    between atoms: _927  and  _928
REMARK  439  A    between atoms: _927  and  _930
REMARK  440  A    between atoms: _930  and  _931
REMARK  441  A    between atoms: _937  and  _938
REMARK  442  A    between atoms: _938  and  _939
REMARK  443  A    between atoms: _941  and  _942
REMARK  444  A    between atoms: _942  and  _943
REMARK  445  A    between atoms: _942  and  _945
REMARK  446  A    between atoms: _948  and  _949
REMARK  447  A    between atoms: _949  and  _950
REMARK  448  A    between atoms: _952  and  _953
REMARK  449  A    between atoms: _953  and  _954
REMARK  450  A    between atoms: _953  and  _956
REMARK  451  A    between atoms: _956  and  _957
REMARK  452  A    between atoms: _963  and  _964
REMARK  453  A    between atoms: _964  and  _965
REMARK  454  A    between atoms: _964  and  _967
REMARK  455  A    between atoms: _967  and  _968
REMARK  456  A    between atoms: _975  and  _976
REMARK  457  A    between atoms: _976  and  _977
REMARK  458  A    between atoms: _976  and  _979
REMARK  459  A    between atoms: _981  and  _982
REMARK  460  A    between atoms: _982  and  _983
REMARK  461  A    between atoms: _986  and  _987
REMARK  462  A    between atoms: _987  and  _988
REMARK  463  A    between atoms: _987  and  _990
REMARK  464  A    between atoms: _990  and  _991
REMARK  465  A    between atoms: _998  and  _999
REMARK  466  A    between atoms: _999  and  _1000
REMARK  467  A    between atoms: _999  and  _1002
REMARK  468  A    between atoms: _1002  and  _1003
REMARK  469  A    between atoms: _1006  and  _1007
REMARK  470  A    between atoms: _1007  and  _1008
REMARK  471  A    between atoms: _1007  and  _1010
REMARK  472  A    between atoms: _1013  and  _1014
REMARK  473  A    between atoms: _1014  and  _1015
REMARK  474  A    between atoms: _1018  and  _1019
REMARK  475  A    between atoms: _1019  and  _1020
REMARK  476  A    between atoms: _1019  and  _1022
REMARK  477  A    between atoms: _1023  and  _1024
REMARK  478  A    between atoms: _1027  and  _1028
REMARK  479  A    between atoms: _1028  and  _1029
REMARK  480  A    between atoms: _1028  and  _1031
REMARK  481  A    between atoms: _1031  and  _1032
REMARK  482  A    between atoms: _1032  and  _1033
REMARK  483  A    between atoms: _1033  and  _1034
REMARK  484  A    between atoms: _1036  and  _1037
REMARK  485  A    between atoms: _1037  and  _1038
REMARK  486  A    between atoms: _1037  and  _1040
REMARK  487  A    between atoms: _1043  and  _1044
REMARK  488  A    between atoms: _1044  and  _1045
REMARK  489  A    between atoms: _1044  and  _1047
REMARK  490  A    between atoms: _1050  and  _1051
REMARK  491  A    between atoms: _1051  and  _1052
REMARK  492  A    between atoms: _1051  and  _1054
REMARK  493  A    between atoms: _1057  and  _1058
REMARK  494  A    between atoms: _1058  and  _1059
REMARK  495  A    between atoms: _1058  and  _1061
REMARK  496  A    between atoms: _1061  and  _1062
REMARK  497  A    between atoms: _1065  and  _1066
REMARK  498  A    between atoms: _1066  and  _1067
REMARK  499  A    between atoms: _1066  and  _1069
REMARK  500  A    between atoms: _1072  and  _1073
REMARK  501  A    between atoms: _1073  and  _1074
REMARK  502  A    between atoms: _1073  and  _1076
REMARK  503  A    between atoms: _1076  and  _1077
REMARK  504  A    between atoms: _1077  and  _1078
REMARK  505  A    between atoms: _1078  and  _1079
REMARK  506  A    between atoms: _1081  and  _1082
REMARK  507  A    between atoms: _1082  and  _1083
REMARK  508  A    between atoms: _1082  and  _1085
REMARK  509  A    between atoms: _1085  and  _1086
REMARK  510  A    between atoms: _1091  and  _1092
REMARK  511  A    between atoms: _1092  and  _1093
REMARK  512  A    between atoms: _1092  and  _1095
REMARK  513  A    between atoms: _1095  and  _1096
REMARK  514  A    between atoms: _1099  and  _1100
REMARK  515  A    between atoms: _1100  and  _1101
REMARK  516  A    between atoms: _1100  and  _1103
REMARK  517  A    between atoms: _1103  and  _1104
REMARK  518  A    between atoms: _1107  and  _1108
REMARK  519  A    between atoms: _1108  and  _1111
REMARK  520  A    between atoms: _1111  and  _1112
REMARK  521  A    between atoms: _1125  and  _1127
REMARK  522  A    between atoms: _1134  and  _1135
REMARK  523  A    between atoms: _1134  and  _1137
REMARK  524  A    between atoms: _1137  and  _1138
REMARK  525  A    between atoms: _1138  and  _1139
REMARK  526  A    between atoms: _1142  and  _1143
REMARK  527  A    between atoms: _1143  and  _1144
REMARK  528  A    between atoms: _1143  and  _1146
REMARK  529  A    between atoms: _1146  and  _1147
REMARK  530  A    between atoms: _1154  and  _1155
REMARK  531  A    between atoms: _1155  and  _1156
REMARK  532  A    between atoms: _1159  and  _1160
REMARK  533  A    between atoms: _1160  and  _1161
REMARK  534  A    between atoms: _1160  and  _1163
REMARK  535  A    between atoms: _1163  and  _1164
REMARK  536  A    between atoms: _1173  and  _1174
REMARK  537  A    between atoms: _1174  and  _1175
REMARK  538  A    between atoms: _1174  and  _1177
REMARK  539  A    between atoms: _1177  and  _1178
REMARK  540  A    between atoms: _1178  and  _1179
REMARK  541  A    between atoms: _1182  and  _1183
REMARK  542  A    between atoms: _1183  and  _1184
REMARK  543  A    between atoms: _1183  and  _1186
REMARK  544  A    between atoms: _1188  and  _1189
REMARK  545  A    between atoms: _1189  and  _1190
REMARK  546  A    between atoms: _1189  and  _1192
REMARK  547  A    between atoms: _1194  and  _1195
REMARK  548  A    between atoms: _1195  and  _1196
REMARK  549  A    between atoms: _1199  and  _1200
REMARK  550  A    between atoms: _1200  and  _1201
REMARK  551  A    between atoms: _1203  and  _1204
REMARK  552  A    between atoms: _1204  and  _1205
REMARK  553  A    between atoms: _1207  and  _1208
REMARK  554  A    between atoms: _1208  and  _1209
REMARK  555  A    between atoms: _1208  and  _1211
REMARK  556  A    between atoms: _1213  and  _1214
REMARK  557  A    between atoms: _1214  and  _1215
REMARK  558  A    between atoms: _1214  and  _1217
REMARK  559  A    between atoms: _1217  and  _1218
REMARK  560  A    between atoms: _1224  and  _1225
REMARK  561  A    between atoms: _1225  and  _1226
REMARK  562  A    between atoms: _1225  and  _1228
REMARK  563  A    between atoms: _1231  and  _1232
REMARK  564  A    between atoms: _1232  and  _1233
REMARK  565  A    between atoms: _1232  and  _1235
REMARK  566  A    between atoms: _1238  and  _1239
REMARK  567  A    between atoms: _1239  and  _1240
REMARK  568  A    between atoms: _1239  and  _1242
REMARK  569  A    between atoms: _1242  and  _1243
REMARK  570  A    between atoms: _1243  and  _1244
REMARK  571  A    between atoms: _1244  and  _1245
REMARK  572  A    between atoms: _1249  and  _1250
REMARK  573  A    between atoms: _1250  and  _1251
REMARK  574  A    between atoms: _1250  and  _1253
REMARK  575  A    between atoms: _1256  and  _1257
REMARK  576  A    between atoms: _1257  and  _1258
REMARK  577  A    between atoms: _1257  and  _1260
REMARK  578  A    between atoms: _1260  and  _1261
REMARK  579  A    between atoms: _1264  and  _1265
REMARK  580  A    between atoms: _1265  and  _1266
REMARK  581  A    between atoms: _1265  and  _1268
REMARK  582  A    between atoms: _1271  and  _1272
REMARK  583  A    between atoms: _1272  and  _1273
REMARK  584  A    between atoms: _1275  and  _1276
REMARK  585  A    between atoms: _1276  and  _1277
REMARK  586  A    between atoms: _1276  and  _1279
REMARK  587  A    between atoms: _1279  and  _1280
REMARK  588  A    between atoms: _1280  and  _1281
REMARK  589  A    between atoms: _1285  and  _1286
REMARK  590  A    between atoms: _1291  and  _1293
REMARK  591  A    between atoms: _1298  and  _1299
REMARK  592  A    between atoms: _1299  and  _1301
REMARK  593  A    between atoms: _1300  and  _1301
REMARK  594  A    between atoms: _1304  and  _1305
REMARK  595  A    between atoms: _1305  and  _1306
REMARK  596  A    between atoms: _1308  and  _1309
REMARK  597  A    between atoms: _1309  and  _1310
REMARK  598  A    between atoms: _1309  and  _1312
REMARK  599  A    between atoms: _1312  and  _1313
REMARK  600  A    between atoms: _1313  and  _1314
REMARK  601  A    between atoms: _1314  and  _1315
REMARK  602  A    between atoms: _1319  and  _1320
REMARK  603  A    between atoms: _1320  and  _1321
REMARK  604  A    between atoms: _1323  and  _1324
REMARK  605  A    between atoms: _1324  and  _1325
REMARK  606  A    between atoms: _1324  and  _1327
REMARK  607  A    between atoms: _1330  and  _1331
REMARK  608  A    between atoms: _1331  and  _1332
REMARK  609  A    between atoms: _1331  and  _1334
REMARK  610  A    between atoms: _1334  and  _1335
REMARK  611  A    between atoms: _1335  and  _1336
REMARK  612  A    between atoms: _1336  and  _1337
REMARK  613  A    between atoms: _1339  and  _1340
REMARK  614  A    between atoms: _1340  and  _1341
REMARK  615  A    between atoms: _1340  and  _1343
REMARK  616  A    between atoms: _1346  and  _1347
REMARK  617  A    between atoms: _1347  and  _1348
REMARK  618  A    between atoms: _1347  and  _1350
REMARK  619  A    between atoms: _1350  and  _1351
REMARK  620  A    between atoms: _1354  and  _1355
REMARK  621  A    between atoms: _1355  and  _1356
REMARK  622  A    between atoms: _1355  and  _1358
REMARK  623  A    between atoms: _1358  and  _1359
REMARK  624  A    between atoms: _1362  and  _1363
REMARK  625  A    between atoms: _1363  and  _1364
REMARK  626  A    between atoms: _1363  and  _1366
REMARK  627  A    between atoms: _1366  and  _1367
REMARK  628  A    between atoms: _1372  and  _1373
REMARK  629  A    between atoms: _1373  and  _1374
REMARK  630  A    between atoms: _1373  and  _1376
REMARK  631  A    between atoms: _1376  and  _1377
REMARK  632  A    between atoms: _1380  and  _1381
REMARK  633  A    between atoms: _1381  and  _1382
REMARK  634  A    between atoms: _1381  and  _1384
REMARK  635  A    between atoms: _1384  and  _1385
REMARK  636  A    between atoms: _1385  and  _1386
REMARK  637  A    between atoms: _1386  and  _1387
REMARK  638  A    between atoms: _1389  and  _1390
REMARK  639  A    between atoms: _1390  and  _1391
REMARK  640  A    between atoms: _1390  and  _1393
REMARK  641  A    between atoms: _1393  and  _1394
REMARK  642  A    between atoms: _1394  and  _1395
REMARK  643  A    between atoms: _1398  and  _1399
REMARK  644  A    between atoms: _1399  and  _1400
REMARK  645  A    between atoms: _1399  and  _1402
REMARK  646  A    between atoms: _1402  and  _1403
REMARK  647  A    between atoms: _1406  and  _1407
REMARK  648  A    between atoms: _1407  and  _1408
REMARK  649  A    between atoms: _1407  and  _1410
REMARK  650  A    between atoms: _1410  and  _1411
REMARK  651  A    between atoms: _1411  and  _1412
REMARK  652  A    between atoms: _1415  and  _1416
REMARK  653  A    between atoms: _1416  and  _1417
REMARK  654  A    between atoms: _1416  and  _1419
REMARK  655  A    between atoms: _1422  and  _1423
REMARK  656  A    between atoms: _1423  and  _1424
REMARK  657  A    between atoms: _1423  and  _1426
REMARK  658  A    between atoms: _1426  and  _1427
REMARK  659  A    between atoms: _1427  and  _1428
REMARK  660  A    between atoms: _1431  and  _1432
REMARK  661  A    between atoms: _1432  and  _1433
REMARK  662  A    between atoms: _1432  and  _1435
REMARK  663  A    between atoms: _1435  and  _1436
REMARK  664  A    between atoms: _1443  and  _1444
REMARK  665  A    between atoms: _1444  and  _1445
REMARK  666  A    between atoms: _1444  and  _1447
REMARK  667  A    between atoms: _1447  and  _1448
REMARK  668  A    between atoms: _1451  and  _1452
REMARK  669  A    between atoms: _1452  and  _1453
REMARK  670  A    between atoms: _1452  and  _1455
REMARK  671  A    between atoms: _1455  and  _1456
REMARK  672  A    between atoms: _1456  and  _1457
REMARK  673  A    between atoms: _1460  and  _1461
REMARK  674  A    between atoms: _1461  and  _1462
REMARK  675  A    between atoms: _1461  and  _1464
REMARK  676  A    between atoms: _1464  and  _1465
REMARK  677  A    between atoms: _1465  and  _1466
REMARK  678  A    between atoms: _1469  and  _1470
REMARK  679  A    between atoms: _1470  and  _1471
REMARK  680  A    between atoms: _1470  and  _1473
REMARK  681  A    between atoms: _1473  and  _1474
REMARK  682  A    between atoms: _1474  and  _1475
REMARK  683  A    between atoms: _1475  and  _1476
REMARK  684  A    between atoms: _1480  and  _1481
REMARK  685  A    between atoms: _1481  and  _1482
REMARK  686  A    between atoms: _1481  and  _1484
REMARK  687  A    between atoms: _1484  and  _1485
REMARK  688  A    between atoms: _1485  and  _1486
REMARK  689  A    between atoms: _1486  and  _1487
REMARK  690  A    between atoms: _1491  and  _1492
REMARK  691  A    between atoms: _1492  and  _1493
REMARK  692  A    between atoms: _1492  and  _1495
REMARK  693  A    between atoms: _1495  and  _1496
REMARK  694  A    between atoms: _1499  and  _1500
REMARK  695  A    between atoms: _1500  and  _1501
REMARK  696  A    between atoms: _1500  and  _1503
REMARK  697  A    between atoms: _1503  and  _1504
REMARK  698  A    between atoms: _1504  and  _1505
REMARK  699  A    between atoms: _1505  and  _1506
REMARK  700  A    between atoms: _1508  and  _1509
REMARK  701  A    between atoms: _1509  and  _1510
REMARK  702  A    between atoms: _1509  and  _1512
REMARK  703  A    between atoms: _1512  and  _1513
REMARK  704  A    between atoms: _1513  and  _1514
REMARK  705  A    between atoms: _1517  and  _1518
REMARK  706  A    between atoms: _1518  and  _1519
REMARK  707  A    between atoms: _1518  and  _1521
REMARK  708  A    between atoms: _1521  and  _1522
REMARK  709  A    between atoms: _1525  and  _1526
REMARK  710  A    between atoms: _1526  and  _1527
REMARK  711  A    between atoms: _1526  and  _1529
REMARK  712  A    between atoms: _1532  and  _1533
REMARK  713  A    between atoms: _1533  and  _1534
REMARK  714  A    between atoms: _1533  and  _1536
REMARK  715  A    between atoms: _1536  and  _1537
REMARK  716  A    between atoms: _1537  and  _1538
REMARK  717  A    between atoms: _1538  and  _1539
REMARK  718  A    between atoms: _1541  and  _1542
REMARK  719  A    between atoms: _1542  and  _1543
REMARK  720  A    between atoms: _1542  and  _1545
REMARK  721  A    between atoms: _1545  and  _1546
REMARK  722  A    between atoms: _1546  and  _1547
REMARK  723  A    between atoms: _1547  and  _1548
REMARK  724  A    between atoms: _1550  and  _1551
REMARK  725  A    between atoms: _1551  and  _1552
REMARK  726  A    between atoms: _1551  and  _1554
REMARK  727  A    between atoms: _1554  and  _1555
REMARK  728  A    between atoms: _1560  and  _1561
REMARK  729  A    between atoms: _1561  and  _1562
REMARK  730  A    between atoms: _1561  and  _1564
REMARK  731  A    between atoms: _1566  and  _1567
REMARK  732  A    between atoms: _1567  and  _1568
REMARK  733  A    between atoms: _1567  and  _1570
REMARK  734  A    between atoms: _1570  and  _1571
REMARK  735  A    between atoms: _1571  and  _1572
REMARK  736  A    between atoms: _1575  and  _1576
REMARK  737  A    between atoms: _1576  and  _1577
REMARK  738  A    between atoms: _1576  and  _1579
REMARK  739  A    between atoms: _1579  and  _1580
REMARK  740  A    between atoms: _1586  and  _1587
REMARK  741  A    between atoms: _1587  and  _1588
REMARK  742  A    between atoms: _1587  and  _1590
REMARK  743  A    between atoms: _1590  and  _1591
REMARK  744  A    between atoms: _1594  and  _1595
REMARK  745  A    between atoms: _1595  and  _1596
REMARK  746  A    between atoms: _1598  and  _1599
REMARK  747  A    between atoms: _1599  and  _1600
REMARK  748  A    between atoms: _1599  and  _1602
REMARK  749  A    between atoms: _1602  and  _1603
REMARK  750  A    between atoms: _1611  and  _1612
REMARK  751  A    between atoms: _1617  and  _1618
REMARK  752  A    between atoms: _1618  and  _1619
REMARK  753  A    between atoms: _1618  and  _1621
REMARK  754  A    between atoms: _1621  and  _1622
REMARK  755  A    between atoms: _1625  and  _1626
REMARK  756  A    between atoms: _1626  and  _1627
REMARK  757  A    between atoms: _1626  and  _1629
REMARK  758  A    between atoms: _1632  and  _1633
REMARK  759  A    between atoms: _1633  and  _1634
REMARK  760  A    between atoms: _1633  and  _1636
REMARK  761  A    between atoms: _1636  and  _1637
REMARK  762  A    between atoms: _1640  and  _1641
REMARK  763  A    between atoms: _1641  and  _1642
REMARK  764  A    between atoms: _1641  and  _1644
REMARK  765  A    between atoms: _1644  and  _1645
REMARK  766  A    between atoms: _1651  and  _1652
REMARK  767  A    between atoms: _1652  and  _1653
REMARK  768  A    between atoms: _1652  and  _1655
REMARK  769  A    between atoms: _1658  and  _1659
REMARK  770  A    between atoms: _1659  and  _1660
REMARK  771  A    between atoms: _1659  and  _1662
REMARK  772  A    between atoms: _1662  and  _1663
REMARK  773  A    between atoms: _1663  and  _1664
REMARK  774  A    between atoms: _1667  and  _1668
REMARK  775  A    between atoms: _1668  and  _1669
REMARK  776  A    between atoms: _1668  and  _1671
REMARK  777  A    between atoms: _1671  and  _1672
REMARK  778  A    between atoms: _1672  and  _1673
REMARK  779  A    between atoms: _1673  and  _1674
REMARK                            x       y       z     vdW  Elec       q    Type
REMARK                         _______ _______ _______ _____ _____    ______ ____
ROOT
ATOM      1  C   UNL     1       7.857  40.106  40.696  0.00  0.00    +0.000 C 
ATOM      2  C   UNL     1       7.686  40.526  42.063  0.00  0.00    +0.000 C 
ENDROOT
TORSDOF 0
REMARK  Name = /Users/mlugowska/PhD/ML_residence_time_prediction/protein_files/5NYH_protein.pdb
REMARK  779 active torsions:
REMARK  status: ('A' for Active; 'I' for Inactive)
REMARK    1  A    between atoms: _2  and  _3
REMARK    2  A    between atoms: _2  and  _5
REMARK    3  A    between atoms: _5  and  _6
REMARK    4  A    between atoms: _6  and  _7
REMARK    5  A    between atoms: _10  and  _11
REMARK    6  A    between atoms: _11  and  _12
REMARK    7  A    between atoms: _11  and  _14
REMARK    8  A    between atoms: _17  and  _18
REMARK    9  A    between atoms: _18  and  _19
REMARK   10  A    between atoms: _18  and  _21
REMARK   11  A    between atoms: _21  and  _22
REMARK   12  A    between atoms: _22  and  _23
REMARK   13  A    between atoms: _26  and  _27
REMARK   14  A    between atoms: _27  and  _28
REMARK   15  A    between atoms: _27  and  _30
REMARK   16  A    between atoms: _33  and  _34
REMARK   17  A    between atoms: _34  and  _35
REMARK   18  A    between atoms: _34  and  _37
REMARK   19  A    between atoms: _37  and  _38
REMARK   20  A    between atoms: _44  and  _45
REMARK   21  A    between atoms: _45  and  _46
REMARK   22  A    between atoms: _49  and  _50
REMARK   23  A    between atoms: _50  and  _51
REMARK   24  A    between atoms: _50  and  _53
REMARK   25  A    between atoms: _53  and  _54
REMARK   26  A    between atoms: _60  and  _61
REMARK   27  A    between atoms: _61  and  _62
REMARK   28  A    between atoms: _61  and  _64
REMARK   29  A    between atoms: _64  and  _65
REMARK   30  A    between atoms: _65  and  _66
REMARK   31  A    between atoms: _69  and  _70
REMARK   32  A    between atoms: _70  and  _71
REMARK   33  A    between atoms: _74  and  _75
REMARK   34  A    between atoms: _75  and  _76
REMARK   35  A    between atoms: _75  and  _78
REMARK   36  A    between atoms: _78  and  _79
REMARK   37  A    between atoms: _79  and  _80
REMARK   38  A    between atoms: _83  and  _84
REMARK   39  A    between atoms: _84  and  _85
REMARK   40  A    between atoms: _84  and  _87
REMARK   41  A    between atoms: _87  and  _88
REMARK   42  A    between atoms: _91  and  _92
REMARK   43  A    between atoms: _92  and  _93
REMARK   44  A    between atoms: _96  and  _97
REMARK   45  A    between atoms: _97  and  _98
REMARK   46  A    between atoms: _97  and  _100
REMARK   47  A    between atoms: _100  and  _101
REMARK   48  A    between atoms: _101  and  _102
REMARK   49  A    between atoms: _105  and  _106
REMARK   50  A    between atoms: _106  and  _107
REMARK   51  A    between atoms: _106  and  _109
REMARK   52  A    between atoms: _109  and  _110
REMARK   53  A    between atoms: _113  and  _114
REMARK   54  A    between atoms: _114  and  _115
REMARK   55  A    between atoms: _114  and  _117
REMARK   56  A    between atoms: _117  and  _118
REMARK   57  A    between atoms: _118  and  _119
REMARK   58  A    between atoms: _121  and  _122
REMARK   59  A    between atoms: _122  and  _123
REMARK   60  A    between atoms: _122  and  _125
REMARK   61  A    between atoms: _127  and  _128
REMARK   62  A    between atoms: _128  and  _129
REMARK   63  A    between atoms: _128  and  _131
REMARK   64  A    between atoms: _131  and  _132
REMARK   65  A    between atoms: _135  and  _136
REMARK   66  A    between atoms: _136  and  _137
REMARK   67  A    between atoms: _136  and  _139
REMARK   68  A    between atoms: _139  and  _140
REMARK   69  A    between atoms: _143  and  _144
REMARK   70  A    between atoms: _144  and  _145
REMARK   71  A    between atoms: _144  and  _147
REMARK   72  A    between atoms: _147  and  _148
REMARK   73  A    between atoms: _151  and  _152
REMARK   74  A    between atoms: _152  and  _153
REMARK   75  A    between atoms: _152  and  _155
REMARK   76  A    between atoms: _155  and  _156
REMARK   77  A    between atoms: _159  and  _160
REMARK   78  A    between atoms: _160  and  _161
REMARK   79  A    between atoms: _160  and  _163
REMARK   80  A    between atoms: _166  and  _167
REMARK   81  A    between atoms: _167  and  _168
REMARK   82  A    between atoms: _167  and  _170
REMARK   83  A    between atoms: _170  and  _171
REMARK   84  A    between atoms: _177  and  _178
REMARK   85  A    between atoms: _178  and  _179
REMARK   86  A    between atoms: _178  and  _181
REMARK   87  A    between atoms: _181  and  _182
REMARK   88  A    between atoms: _189  and  _190
REMARK   89  A    between atoms: _190  and  _191
REMARK   90  A    between atoms: _190  and  _193
REMARK   91  A    between atoms: _195  and  _196
REMARK   92  A    between atoms: _196  and  _197
REMARK   93  A    between atoms: _196  and  _199
REMARK   94  A    between atoms: _199  and  _200
REMARK   95  A    between atoms: _203  and  _204
REMARK   96  A    between atoms: _204  and  _205
REMARK   97  A    between atoms: _204  and  _207
REMARK   98  A    between atoms: _207  and  _208
REMARK   99  A    between atoms: _208  and  _209
REMARK  100  A    between atoms: _209  and  _210
REMARK  101  A    between atoms: _212  and  _213
REMARK  102  A    between atoms: _213  and  _214
REMARK  103  A    between atoms: _213  and  _216
REMARK  104  A    between atoms: _216  and  _217
REMARK  105  A    between atoms: _217  and  _218
REMARK  106  A    between atoms: _221  and  _222
REMARK  107  A    between atoms: _222  and  _223
REMARK  108  A    between atoms: _222  and  _225
REMARK  109  A    between atoms: _225  and  _226
REMARK  110  A    between atoms: _229  and  _230
REMARK  111  A    between atoms: _230  and  _231
REMARK  112  A    between atoms: _230  and  _233
REMARK  113  A    between atoms: _233  and  _234
REMARK  114  A    between atoms: _240  and  _241
REMARK  115  A    between atoms: _241  and  _242
REMARK  116  A    between atoms: _241  and  _244
REMARK  117  A    between atoms: _244  and  _245
REMARK  118  A    between atoms: _248  and  _249
REMARK  119  A    between atoms: _249  and  _250
REMARK  120  A    between atoms: _249  and  _252
REMARK  121  A    between atoms: _252  and  _253
REMARK  122  A    between atoms: _253  and  _254
REMARK  123  A    between atoms: _254  and  _255
REMARK  124  A    between atoms: _259  and  _260
REMARK  125  A    between atoms: _260  and  _261
REMARK  126  A    between atoms: _260  and  _263
REMARK  127  A    between atoms: _263  and  _264
REMARK  128  A    between atoms: _264  and  _265
REMARK  129  A    between atoms: _268  and  _269
REMARK  130  A    between atoms: _269  and  _270
REMARK  131  A    between atoms: _269  and  _272
REMARK  132  A    between atoms: _272  and  _273
REMARK  133  A    between atoms: _276  and  _277
REMARK  134  A    between atoms: _277  and  _278
REMARK  135  A    between atoms: _277  and  _280
REMARK  136  A    between atoms: _280  and  _281
REMARK  137  A    between atoms: _284  and  _285
REMARK  138  A    between atoms: _285  and  _286
REMARK  139  A    between atoms: _285  and  _288
REMARK  140  A    between atoms: _290  and  _291
REMARK  141  A    between atoms: _291  and  _292
REMARK  142  A    between atoms: _291  and  _294
REMARK  143  A    between atoms: _294  and  _295
REMARK  144  A    between atoms: _298  and  _299
REMARK  145  A    between atoms: _299  and  _300
REMARK  146  A    between atoms: _299  and  _302
REMARK  147  A    between atoms: _304  and  _305
REMARK  148  A    between atoms: _305  and  _306
REMARK  149  A    between atoms: _305  and  _308
REMARK  150  A    between atoms: _310  and  _311
REMARK  151  A    between atoms: _311  and  _312
REMARK  152  A    between atoms: _311  and  _314
REMARK  153  A    between atoms: _314  and  _315
REMARK  154  A    between atoms: _318  and  _319
REMARK  155  A    between atoms: _319  and  _320
REMARK  156  A    between atoms: _323  and  _324
REMARK  157  A    between atoms: _324  and  _325
REMARK  158  A    between atoms: _324  and  _327
REMARK  159  A    between atoms: _327  and  _328
REMARK  160  A    between atoms: _331  and  _332
REMARK  161  A    between atoms: _332  and  _333
REMARK  162  A    between atoms: _332  and  _335
REMARK  163  A    between atoms: _335  and  _336
REMARK  164  A    between atoms: _339  and  _340
REMARK  165  A    between atoms: _340  and  _341
REMARK  166  A    between atoms: _340  and  _343
REMARK  167  A    between atoms: _343  and  _344
REMARK  168  A    between atoms: _344  and  _345
REMARK  169  A    between atoms: _345  and  _346
REMARK  170  A    between atoms: _348  and  _349
REMARK  171  A    between atoms: _349  and  _350
REMARK  172  A    between atoms: _349  and  _352
REMARK  173  A    between atoms: _352  and  _353
REMARK  174  A    between atoms: _356  and  _357
REMARK  175  A    between atoms: _357  and  _358
REMARK  176  A    between atoms: _357  and  _360
REMARK  177  A    between atoms: _360  and  _361
REMARK  178  A    between atoms: _361  and  _362
REMARK  179  A    between atoms: _362  and  _363
REMARK  180  A    between atoms: _367  and  _368
REMARK  181  A    between atoms: _368  and  _369
REMARK  182  A    between atoms: _368  and  _371
REMARK  183  A    between atoms: _371  and  _372
REMARK  184  A    between atoms: _379  and  _380
REMARK  185  A    between atoms: _380  and  _381
REMARK  186  A    between atoms: _380  and  _383
REMARK  187  A    between atoms: _383  and  _384
REMARK  188  A    between atoms: _384  and  _385
REMARK  189  A    between atoms: _388  and  _389
REMARK  190  A    between atoms: _389  and  _390
REMARK  191  A    between atoms: _389  and  _392
REMARK  192  A    between atoms: _394  and  _395
REMARK  193  A    between atoms: _395  and  _396
REMARK  194  A    between atoms: _395  and  _398
REMARK  195  A    between atoms: _398  and  _399
REMARK  196  A    between atoms: _402  and  _403
REMARK  197  A    between atoms: _403  and  _404
REMARK  198  A    between atoms: _403  and  _406
REMARK  199  A    between atoms: _409  and  _410
REMARK  200  A    between atoms: _410  and  _411
REMARK  201  A    between atoms: _410  and  _413
REMARK  202  A    between atoms: _413  and  _414
REMARK  203  A    between atoms: _418  and  _419
REMARK  204  A    between atoms: _424  and  _425
REMARK  205  A    between atoms: _425  and  _426
REMARK  206  A    between atoms: _425  and  _428
REMARK  207  A    between atoms: _430  and  _431
REMARK  208  A    between atoms: _431  and  _432
REMARK  209  A    between atoms: _431  and  _434
REMARK  210  A    between atoms: _434  and  _435
REMARK  211  A    between atoms: _435  and  _436
REMARK  212  A    between atoms: _436  and  _437
REMARK  213  A    between atoms: _439  and  _440
REMARK  214  A    between atoms: _440  and  _441
REMARK  215  A    between atoms: _440  and  _443
REMARK  216  A    between atoms: _443  and  _444
REMARK  217  A    between atoms: _447  and  _448
REMARK  218  A    between atoms: _448  and  _449
REMARK  219  A    between atoms: _448  and  _451
REMARK  220  A    between atoms: _451  and  _452
REMARK  221  A    between atoms: _455  and  _456
REMARK  222  A    between atoms: _456  and  _457
REMARK  223  A    between atoms: _456  and  _459
REMARK  224  A    between atoms: _461  and  _462
REMARK  225  A    between atoms: _462  and  _463
REMARK  226  A    between atoms: _465  and  _466
REMARK  227  A    between atoms: _466  and  _467
REMARK  228  A    between atoms: _466  and  _469
REMARK  229  A    between atoms: _469  and  _470
REMARK  230  A    between atoms: _470  and  _471
REMARK  231  A    between atoms: _471  and  _472
REMARK  232  A    between atoms: _474  and  _475
REMARK  233  A    between atoms: _475  and  _476
REMARK  234  A    between atoms: _475  and  _478
REMARK  235  A    between atoms: _478  and  _479
REMARK  236  A    between atoms: _479  and  _480
REMARK  237  A    between atoms: _483  and  _484
REMARK  238  A    between atoms: _484  and  _485
REMARK  239  A    between atoms: _484  and  _487
REMARK  240  A    between atoms: _487  and  _488
REMARK  241  A    between atoms: _491  and  _492
REMARK  242  A    between atoms: _492  and  _493
REMARK  243  A    between atoms: _492  and  _495
REMARK  244  A    between atoms: _495  and  _496
REMARK  245  A    between atoms: _501  and  _502
REMARK  246  A    between atoms: _502  and  _503
REMARK  247  A    between atoms: _502  and  _505
REMARK  248  A    between atoms: _505  and  _506
REMARK  249  A    between atoms: _509  and  _510
REMARK  250  A    between atoms: _510  and  _511
REMARK  251  A    between atoms: _510  and  _513
REMARK  252  A    between atoms: _513  and  _514
REMARK  253  A    between atoms: _517  and  _518
REMARK  254  A    between atoms: _518  and  _519
REMARK  255  A    between atoms: _518  and  _521
REMARK  256  A    between atoms: _521  and  _522
REMARK  257  A    between atoms: _525  and  _526
REMARK  258  A    between atoms: _526  and  _527
REMARK  259  A    between atoms: _526  and  _529
REMARK  260  A    between atoms: _529  and  _530
REMARK  261  A    between atoms: _534  and  _535
REMARK  262  A    between atoms: _540  and  _541
REMARK  263  A    between atoms: _541  and  _542
REMARK  264  A    between atoms: _541  and  _544
REMARK  265  A    between atoms: _544  and  _545
REMARK  266  A    between atoms: _548  and  _549
REMARK  267  A    between atoms: _549  and  _552
REMARK  268  A    between atoms: _552  and  _553
REMARK  269  A    between atoms: _553  and  _554
REMARK  270  A    between atoms: _554  and  _555
REMARK  271  A    between atoms: _568  and  _569
REMARK  272  A    between atoms: _576  and  _577
REMARK  273  A    between atoms: _576  and  _579
REMARK  274  A    between atoms: _579  and  _580
REMARK  275  A    between atoms: _583  and  _584
REMARK  276  A    between atoms: _584  and  _585
REMARK  277  A    between atoms: _584  and  _587
REMARK  278  A    between atoms: _587  and  _588
REMARK  279  A    between atoms: _588  and  _589
REMARK  280  A    between atoms: _589  and  _590
REMARK  281  A    between atoms: _594  and  _595
REMARK  282  A    between atoms: _595  and  _596
REMARK  283  A    between atoms: _595  and  _598
REMARK  284  A    between atoms: _601  and  _602
REMARK  285  A    between atoms: _602  and  _603
REMARK  286  A    between atoms: _602  and  _605
REMARK  287  A    between atoms: _605  and  _606
REMARK  288  A    between atoms: _609  and  _610
REMARK  289  A    between atoms: _610  and  _611
REMARK  290  A    between atoms: _610  and  _613
REMARK  291  A    between atoms: _616  and  _617
REMARK  292  A    between atoms: _617  and  _618
REMARK  293  A    between atoms: _617  and  _620
REMARK  294  A    between atoms: _620  and  _621
REMARK  295  A    between atoms: _624  and  _625
REMARK  296  A    between atoms: _625  and  _626
REMARK  297  A    between atoms: _625  and  _628
REMARK  298  A    between atoms: _631  and  _632
REMARK  299  A    between atoms: _632  and  _633
REMARK  300  A    between atoms: _632  and  _635
REMARK  301  A    between atoms: _635  and  _636
REMARK  302  A    between atoms: _639  and  _640
REMARK  303  A    between atoms: _640  and  _641
REMARK  304  A    between atoms: _640  and  _643
REMARK  305  A    between atoms: _646  and  _647
REMARK  306  A    between atoms: _647  and  _648
REMARK  307  A    between atoms: _650  and  _651
REMARK  308  A    between atoms: _651  and  _652
REMARK  309  A    between atoms: _651  and  _654
REMARK  310  A    between atoms: _654  and  _655
REMARK  311  A    between atoms: _658  and  _659
REMARK  312  A    between atoms: _659  and  _660
REMARK  313  A    between atoms: _662  and  _663
REMARK  314  A    between atoms: _663  and  _664
REMARK  315  A    between atoms: _663  and  _666
REMARK  316  A    between atoms: _666  and  _667
REMARK  317  A    between atoms: _667  and  _668
REMARK  318  A    between atoms: _670  and  _671
REMARK  319  A    between atoms: _671  and  _672
REMARK  320  A    between atoms: _671  and  _674
REMARK  321  A    between atoms: _677  and  _678
REMARK  322  A    between atoms: _678  and  _679
REMARK  323  A    between atoms: _678  and  _681
REMARK  324  A    between atoms: _681  and  _682
REMARK  325  A    between atoms: _682  and  _683
REMARK  326  A    between atoms: _683  and  _684
REMARK  327  A    between atoms: _686  and  _687
REMARK  328  A    between atoms: _687  and  _688
REMARK  329  A    between atoms: _691  and  _692
REMARK  330  A    between atoms: _692  and  _693
REMARK  331  A    between atoms: _692  and  _695
REMARK  332  A    between atoms: _695  and  _696
REMARK  333  A    between atoms: _699  and  _700
REMARK  334  A    between atoms: _700  and  _701
REMARK  335  A    between atoms: _700  and  _703
REMARK  336  A    between atoms: _703  and  _704
REMARK  337  A    between atoms: _707  and  _708
REMARK  338  A    between atoms: _708  and  _709
REMARK  339  A    between atoms: _708  and  _711
REMARK  340  A    between atoms: _711  and  _712
REMARK  341  A    between atoms: _715  and  _716
REMARK  342  A    between atoms: _716  and  _717
REMARK  343  A    between atoms: _716  and  _719
REMARK  344  A    between atoms: _719  and  _720
REMARK  345  A    between atoms: _723  and  _724
REMARK  346  A    between atoms: _724  and  _725
REMARK  347  A    between atoms: _724  and  _727
REMARK  348  A    between atoms: _727  and  _728
REMARK  349  A    between atoms: _731  and  _732
REMARK  350  A    between atoms: _732  and  _733
REMARK  351  A    between atoms: _732  and  _735
REMARK  352  A    between atoms: _735  and  _736
REMARK  353  A    between atoms: _739  and  _740
REMARK  354  A    between atoms: _740  and  _741
REMARK  355  A    between atoms: _743  and  _744
REMARK  356  A    between atoms: _744  and  _745
REMARK  357  A    between atoms: _744  and  _747
REMARK  358  A    between atoms: _750  and  _751
REMARK  359  A    between atoms: _751  and  _752
REMARK  360  A    between atoms: _751  and  _754
REMARK  361  A    between atoms: _754  and  _755
REMARK  362  A    between atoms: _758  and  _759
REMARK  363  A    between atoms: _759  and  _760
REMARK  364  A    between atoms: _763  and  _764
REMARK  365  A    between atoms: _764  and  _765
REMARK  366  A    between atoms: _764  and  _767
REMARK  367  A    between atoms: _767  and  _768
REMARK  368  A    between atoms: _768  and  _769
REMARK  369  A    between atoms: _769  and  _770
REMARK  370  A    between atoms: _772  and  _773
REMARK  371  A    between atoms: _773  and  _774
REMARK  372  A    between atoms: _773  and  _776
REMARK  373  A    between atoms: _778  and  _779
REMARK  374  A    between atoms: _779  and  _780
REMARK  375  A    between atoms: _782  and  _783
REMARK  376  A    between atoms: _783  and  _784
REMARK  377  A    between atoms: _783  and  _786
REMARK  378  A    between atoms: _789  and  _790
REMARK  379  A    between atoms: _790  and  _791
REMARK  380  A    between atoms: _790  and  _793
REMARK  381  A    between atoms: _793  and  _794
REMARK  382  A    between atoms: _794  and  _795
REMARK  383  A    between atoms: _795  and  _796
REMARK  384  A    between atoms: _798  and  _799
REMARK  385  A    between atoms: _799  and  _800
REMARK  386  A    between atoms: _803  and  _804
REMARK  387  A    between atoms: _804  and  _805
REMARK  388  A    between atoms: _804  and  _807
REMARK  389  A    between atoms: _807  and  _808
REMARK  390  A    between atoms: _814  and  _815
REMARK  391  A    between atoms: _815  and  _816
REMARK  392  A    between atoms: _815  and  _818
REMARK  393  A    between atoms: _818  and  _819
REMARK  394  A    between atoms: _819  and  _820
REMARK  395  A    between atoms: _822  and  _823
REMARK  396  A    between atoms: _823  and  _824
REMARK  397  A    between atoms: _823  and  _826
REMARK  398  A    between atoms: _826  and  _827
REMARK  399  A    between atoms: _827  and  _828
REMARK  400  A    between atoms: _831  and  _832
REMARK  401  A    between atoms: _832  and  _833
REMARK  402  A    between atoms: _836  and  _837
REMARK  403  A    between atoms: _837  and  _838
REMARK  404  A    between atoms: _837  and  _840
REMARK  405  A    between atoms: _840  and  _841
REMARK  406  A    between atoms: _844  and  _845
REMARK  407  A    between atoms: _845  and  _846
REMARK  408  A    between atoms: _845  and  _848
REMARK  409  A    between atoms: _848  and  _849
REMARK  410  A    between atoms: _849  and  _850
REMARK  411  A    between atoms: _853  and  _854
REMARK  412  A    between atoms: _854  and  _855
REMARK  413  A    between atoms: _858  and  _859
REMARK  414  A    between atoms: _859  and  _860
REMARK  415  A    between atoms: _862  and  _863
REMARK  416  A    between atoms: _863  and  _864
REMARK  417  A    between atoms: _867  and  _868
REMARK  418  A    between atoms: _868  and  _869
REMARK  419  A    between atoms: _868  and  _871
REMARK  420  A    between atoms: _871  and  _872
REMARK  421  A    between atoms: _875  and  _876
REMARK  422  A    between atoms: _876  and  _877
REMARK  423  A    between atoms: _876  and  _879
REMARK  424  A    between atoms: _879  and  _880
REMARK  425  A    between atoms: _883  and  _884
REMARK  426  A    between atoms: _884  and  _887
REMARK  427  A    between atoms: _906  and  _907
REMARK  428  A    between atoms: _906  and  _909
REMARK  429  A    between atoms: _909  and  _910
REMARK  430  A    between atoms: _913  and  _914
REMARK  431  A    between atoms: _914  and  _915
REMARK  432  A    between atoms: _917  and  _918
REMARK  433  A    between atoms: _918  and  _919
REMARK  434  A    between atoms: _918  and  _921
REMARK  435  A    between atoms: _921  and  _922
REMARK  436  A    between atoms: _922  and  _923
REMARK  437  A    between atoms: _926  and  _927
REMARK  438  A    between atoms: _927  and  _928
REMARK  439  A    between atoms: _927  and  _930
REMARK  440  A    between atoms: _930  and  _931
REMARK  441  A    between atoms: _937  and  _938
REMARK  442  A    between atoms: _938  and  _939
REMARK  443  A    between atoms: _941  and  _942
REMARK  444  A    between atoms: _942  and  _943
REMARK  445  A    between atoms: _942  and  _945
REMARK  446  A    between atoms: _948  and  _949
REMARK  447  A    between atoms: _949  and  _950
REMARK  448  A    between atoms: _952  and  _953
REMARK  449  A    between atoms: _953  and  _954
REMARK  450  A    between atoms: _953  and  _956
REMARK  451  A    between atoms: _956  and  _957
REMARK  452  A    between atoms: _963  and  _964
REMARK  453  A    between atoms: _964  and  _965
REMARK  454  A    between atoms: _964  and  _967
REMARK  455  A    between atoms: _967  and  _968
REMARK  456  A    between atoms: _975  and  _976
REMARK  457  A    between atoms: _976  and  _977
REMARK  458  A    between atoms: _976  and  _979
REMARK  459  A    between atoms: _981  and  _982
REMARK  460  A    between atoms: _982  and  _983
REMARK  461  A    between atoms: _986  and  _987
REMARK  462  A    between atoms: _987  and  _988
REMARK  463  A    between atoms: _987  and  _990
REMARK  464  A    between atoms: _990  and  _991
REMARK  465  A    between atoms: _998  and  _999
REMARK  466  A    between atoms: _999  and  _1000
REMARK  467  A    between atoms: _999  and  _1002
REMARK  468  A    between atoms: _1002  and  _1003
REMARK  469  A    between atoms: _1006  and  _1007
REMARK  470  A    between atoms: _1007  and  _1008
REMARK  471  A    between atoms: _1007  and  _1010
REMARK  472  A    between atoms: _1013  and  _1014
REMARK  473  A    between atoms: _1014  and  _1015
REMARK  474  A    between atoms: _1018  and  _1019
REMARK  475  A    between atoms: _1019  and  _1020
REMARK  476  A    between atoms: _1019  and  _1022
REMARK  477  A    between atoms: _1023  and  _1024
REMARK  478  A    between atoms: _1027  and  _1028
REMARK  479  A    between atoms: _1028  and  _1029
REMARK  480  A    between atoms: _1028  and  _1031
REMARK  481  A    between atoms: _1031  and  _1032
REMARK  482  A    between atoms: _1032  and  _1033
REMARK  483  A    between atoms: _1033  and  _1034
REMARK  484  A    between atoms: _1036  and  _1037
REMARK  485  A    between atoms: _1037  and  _1038
REMARK  486  A    between atoms: _1037  and  _1040
REMARK  487  A    between atoms: _1043  and  _1044
REMARK  488  A    between atoms: _1044  and  _1045
REMARK  489  A    between atoms: _1044  and  _1047
REMARK  490  A    between atoms: _1050  and  _1051
REMARK  491  A    between atoms: _1051  and  _1052
REMARK  492  A    between atoms: _1051  and  _1054
REMARK  493  A    between atoms: _1057  and  _1058
REMARK  494  A    between atoms: _1058  and  _1059
REMARK  495  A    between atoms: _1058  and  _1061
REMARK  496  A    between atoms: _1061  and  _1062
REMARK  497  A    between atoms: _1065  and  _1066
REMARK  498  A    between atoms: _1066  and  _1067
REMARK  499  A    between atoms: _1066  and  _1069
REMARK  500  A    between atoms: _1072  and  _1073
REMARK  501  A    between atoms: _1073  and  _1074
REMARK  502  A    between atoms: _1073  and  _1076
REMARK  503  A    between atoms: _1076  and  _1077
REMARK  504  A    between atoms: _1077  and  _1078
REMARK  505  A    between atoms: _1078  and  _1079
REMARK  506  A    between atoms: _1081  and  _1082
REMARK  507  A    between atoms: _1082  and  _1083
REMARK  508  A    between atoms: _1082  and  _1085
REMARK  509  A    between atoms: _1085  and  _1086
REMARK  510  A    between atoms: _1091  and  _1092
REMARK  511  A    between atoms: _1092  and  _1093
REMARK  512  A    between atoms: _1092  and  _1095
REMARK  513  A    between atoms: _1095  and  _1096
REMARK  514  A    between atoms: _1099  and  _1100
REMARK  515  A    between atoms: _1100  and  _1101
REMARK  516  A    between atoms: _1100  and  _1103
REMARK  517  A    between atoms: _1103  and  _1104
REMARK  518  A    between atoms: _1107  and  _1108
REMARK  519  A    between atoms: _1108  and  _1111
REMARK  520  A    between atoms: _1111  and  _1112
REMARK  521  A    between atoms: _1125  and  _1127
REMARK  522  A    between atoms: _1134  and  _1135
REMARK  523  A    between atoms: _1134  and  _1137
REMARK  524  A    between atoms: _1137  and  _1138
REMARK  525  A    between atoms: _1138  and  _1139
REMARK  526  A    between atoms: _1142  and  _1143
REMARK  527  A    between atoms: _1143  and  _1144
REMARK  528  A    between atoms: _1143  and  _1146
REMARK  529  A    between atoms: _1146  and  _1147
REMARK  530  A    between atoms: _1154  and  _1155
REMARK  531  A    between atoms: _1155  and  _1156
REMARK  532  A    between atoms: _1159  and  _1160
REMARK  533  A    between atoms: _1160  and  _1161
REMARK  534  A    between atoms: _1160  and  _1163
REMARK  535  A    between atoms: _1163  and  _1164
REMARK  536  A    between atoms: _1173  and  _1174
REMARK  537  A    between atoms: _1174  and  _1175
REMARK  538  A    between atoms: _1174  and  _1177
REMARK  539  A    between atoms: _1177  and  _1178
REMARK  540  A    between atoms: _1178  and  _1179
REMARK  541  A    between atoms: _1182  and  _1183
REMARK  542  A    between atoms: _1183  and  _1184
REMARK  543  A    between atoms: _1183  and  _1186
REMARK  544  A    between atoms: _1188  and  _1189
REMARK  545  A    between atoms: _1189  and  _1190
REMARK  546  A    between atoms: _1189  and  _1192
REMARK  547  A    between atoms: _1194  and  _1195
REMARK  548  A    between atoms: _1195  and  _1196
REMARK  549  A    between atoms: _1199  and  _1200
REMARK  550  A    between atoms: _1200  and  _1201
REMARK  551  A    between atoms: _1203  and  _1204
REMARK  552  A    between atoms: _1204  and  _1205
REMARK  553  A    between atoms: _1207  and  _1208
REMARK  554  A    between atoms: _1208  and  _1209
REMARK  555  A    between atoms: _1208  and  _1211
REMARK  556  A    between atoms: _1213  and  _1214
REMARK  557  A    between atoms: _1214  and  _1215
REMARK  558  A    between atoms: _1214  and  _1217
REMARK  559  A    between atoms: _1217  and  _1218
REMARK  560  A    between atoms: _1224  and  _1225
REMARK  561  A    between atoms: _1225  and  _1226
REMARK  562  A    between atoms: _1225  and  _1228
REMARK  563  A    between atoms: _1231  and  _1232
REMARK  564  A    between atoms: _1232  and  _1233
REMARK  565  A    between atoms: _1232  and  _1235
REMARK  566  A    between atoms: _1238  and  _1239
REMARK  567  A    between atoms: _1239  and  _1240
REMARK  568  A    between atoms: _1239  and  _1242
REMARK  569  A    between atoms: _1242  and  _1243
REMARK  570  A    between atoms: _1243  and  _1244
REMARK  571  A    between atoms: _1244  and  _1245
REMARK  572  A    between atoms: _1249  and  _1250
REMARK  573  A    between atoms: _1250  and  _1251
REMARK  574  A    between atoms: _1250  and  _1253
REMARK  575  A    between atoms: _1256  and  _1257
REMARK  576  A    between atoms: _1257  and  _1258
REMARK  577  A    between atoms: _1257  and  _1260
REMARK  578  A    between atoms: _1260  and  _1261
REMARK  579  A    between atoms: _1264  and  _1265
REMARK  580  A    between atoms: _1265  and  _1266
REMARK  581  A    between atoms: _1265  and  _1268
REMARK  582  A    between atoms: _1271  and  _1272
REMARK  583  A    between atoms: _1272  and  _1273
REMARK  584  A    between atoms: _1275  and  _1276
REMARK  585  A    between atoms: _1276  and  _1277
REMARK  586  A    between atoms: _1276  and  _1279
REMARK  587  A    between atoms: _1279  and  _1280
REMARK  588  A    between atoms: _1280  and  _1281
REMARK  589  A    between atoms: _1285  and  _1286
REMARK  590  A    between atoms: _1291  and  _1293
REMARK  591  A    between atoms: _1298  and  _1299
REMARK  592  A    between atoms: _1299  and  _1301
REMARK  593  A    between atoms: _1300  and  _1301
REMARK  594  A    between atoms: _1304  and  _1305
REMARK  595  A    between atoms: _1305  and  _1306
REMARK  596  A    between atoms: _1308  and  _1309
REMARK  597  A    between atoms: _1309  and  _1310
REMARK  598  A    between atoms: _1309  and  _1312
REMARK  599  A    between atoms: _1312  and  _1313
REMARK  600  A    between atoms: _1313  and  _1314
REMARK  601  A    between atoms: _1314  and  _1315
REMARK  602  A    between atoms: _1319  and  _1320
REMARK  603  A    between atoms: _1320  and  _1321
REMARK  604  A    between atoms: _1323  and  _1324
REMARK  605  A    between atoms: _1324  and  _1325
REMARK  606  A    between atoms: _1324  and  _1327
REMARK  607  A    between atoms: _1330  and  _1331
REMARK  608  A    between atoms: _1331  and  _1332
REMARK  609  A    between atoms: _1331  and  _1334
REMARK  610  A    between atoms: _1334  and  _1335
REMARK  611  A    between atoms: _1335  and  _1336
REMARK  612  A    between atoms: _1336  and  _1337
REMARK  613  A    between atoms: _1339  and  _1340
REMARK  614  A    between atoms: _1340  and  _1341
REMARK  615  A    between atoms: _1340  and  _1343
REMARK  616  A    between atoms: _1346  and  _1347
REMARK  617  A    between atoms: _1347  and  _1348
REMARK  618  A    between atoms: _1347  and  _1350
REMARK  619  A    between atoms: _1350  and  _1351
REMARK  620  A    between atoms: _1354  and  _1355
REMARK  621  A    between atoms: _1355  and  _1356
REMARK  622  A    between atoms: _1355  and  _1358
REMARK  623  A    between atoms: _1358  and  _1359
REMARK  624  A    between atoms: _1362  and  _1363
REMARK  625  A    between atoms: _1363  and  _1364
REMARK  626  A    between atoms: _1363  and  _1366
REMARK  627  A    between atoms: _1366  and  _1367
REMARK  628  A    between atoms: _1372  and  _1373
REMARK  629  A    between atoms: _1373  and  _1374
REMARK  630  A    between atoms: _1373  and  _1376
REMARK  631  A    between atoms: _1376  and  _1377
REMARK  632  A    between atoms: _1380  and  _1381
REMARK  633  A    between atoms: _1381  and  _1382
REMARK  634  A    between atoms: _1381  and  _1384
REMARK  635  A    between atoms: _1384  and  _1385
REMARK  636  A    between atoms: _1385  and  _1386
REMARK  637  A    between atoms: _1386  and  _1387
REMARK  638  A    between atoms: _1389  and  _1390
REMARK  639  A    between atoms: _1390  and  _1391
REMARK  640  A    between atoms: _1390  and  _1393
REMARK  641  A    between atoms: _1393  and  _1394
REMARK  642  A    between atoms: _1394  and  _1395
REMARK  643  A    between atoms: _1398  and  _1399
REMARK  644  A    between atoms: _1399  and  _1400
REMARK  645  A    between atoms: _1399  and  _1402
REMARK  646  A    between atoms: _1402  and  _1403
REMARK  647  A    between atoms: _1406  and  _1407
REMARK  648  A    between atoms: _1407  and  _1408
REMARK  649  A    between atoms: _1407  and  _1410
REMARK  650  A    between atoms: _1410  and  _1411
REMARK  651  A    between atoms: _1411  and  _1412
REMARK  652  A    between atoms: _1415  and  _1416
REMARK  653  A    between atoms: _1416  and  _1417
REMARK  654  A    between atoms: _1416  and  _1419
REMARK  655  A    between atoms: _1422  and  _1423
REMARK  656  A    between atoms: _1423  and  _1424
REMARK  657  A    between atoms: _1423  and  _1426
REMARK  658  A    between atoms: _1426  and  _1427
REMARK  659  A    between atoms: _1427  and  _1428
REMARK  660  A    between atoms: _1431  and  _1432
REMARK  661  A    between atoms: _1432  and  _1433
REMARK  662  A    between atoms: _1432  and  _1435
REMARK  663  A    between atoms: _1435  and  _1436
REMARK  664  A    between atoms: _1443  and  _1444
REMARK  665  A    between atoms: _1444  and  _1445
REMARK  666  A    between atoms: _1444  and  _1447
REMARK  667  A    between atoms: _1447  and  _1448
REMARK  668  A    between atoms: _1451  and  _1452
REMARK  669  A    between atoms: _1452  and  _1453
REMARK  670  A    between atoms: _1452  and  _1455
REMARK  671  A    between atoms: _1455  and  _1456
REMARK  672  A    between atoms: _1456  and  _1457
REMARK  673  A    between atoms: _1460  and  _1461
REMARK  674  A    between atoms: _1461  and  _1462
REMARK  675  A    between atoms: _1461  and  _1464
REMARK  676  A    between atoms: _1464  and  _1465
REMARK  677  A    between atoms: _1465  and  _1466
REMARK  678  A    between atoms: _1469  and  _1470
REMARK  679  A    between atoms: _1470  and  _1471
REMARK  680  A    between atoms: _1470  and  _1473
REMARK  681  A    between atoms: _1473  and  _1474
REMARK  682  A    between atoms: _1474  and  _1475
REMARK  683  A    between atoms: _1475  and  _1476
REMARK  684  A    between atoms: _1480  and  _1481
REMARK  685  A    between atoms: _1481  and  _1482
REMARK  686  A    between atoms: _1481  and  _1484
REMARK  687  A    between atoms: _1484  and  _1485
REMARK  688  A    between atoms: _1485  and  _1486
REMARK  689  A    between atoms: _1486  and  _1487
REMARK  690  A    between atoms: _1491  and  _1492
REMARK  691  A    between atoms: _1492  and  _1493
REMARK  692  A    between atoms: _1492  and  _1495
REMARK  693  A    between atoms: _1495  and  _1496
REMARK  694  A    between atoms: _1499  and  _1500
REMARK  695  A    between atoms: _1500  and  _1501
REMARK  696  A    between atoms: _1500  and  _1503
REMARK  697  A    between atoms: _1503  and  _1504
REMARK  698  A    between atoms: _1504  and  _1505
REMARK  699  A    between atoms: _1505  and  _1506
REMARK  700  A    between atoms: _1508  and  _1509
REMARK  701  A    between atoms: _1509  and  _1510
REMARK  702  A    between atoms: _1509  and  _1512
REMARK  703  A    between atoms: _1512  and  _1513
REMARK  704  A    between atoms: _1513  and  _1514
REMARK  705  A    between atoms: _1517  and  _1518
REMARK  706  A    between atoms: _1518  and  _1519
REMARK  707  A    between atoms: _1518  and  _1521
REMARK  708  A    between atoms: _1521  and  _1522
REMARK  709  A    between atoms: _1525  and  _1526
REMARK  710  A    between atoms: _1526  and  _1527
REMARK  711  A    between atoms: _1526  and  _1529
REMARK  712  A    between atoms: _1532  and  _1533
REMARK  713  A    between atoms: _1533  and  _1534
REMARK  714  A    between atoms: _1533  and  _1536
REMARK  715  A    between atoms: _1536  and  _1537
REMARK  716  A    between atoms: _1537  and  _1538
REMARK  717  A    between atoms: _1538  and  _1539
REMARK  718  A    between atoms: _1541  and  _1542
REMARK  719  A    between atoms: _1542  and  _1543
REMARK  720  A    between atoms: _1542  and  _1545
REMARK  721  A    between atoms: _1545  and  _1546
REMARK  722  A    between atoms: _1546  and  _1547
REMARK  723  A    between atoms: _1547  and  _1548
REMARK  724  A    between atoms: _1550  and  _1551
REMARK  725  A    between atoms: _1551  and  _1552
REMARK  726  A    between atoms: _1551  and  _1554
REMARK  727  A    between atoms: _1554  and  _1555
REMARK  728  A    between atoms: _1560  and  _1561
REMARK  729  A    between atoms: _1561  and  _1562
REMARK  730  A    between atoms: _1561  and  _1564
REMARK  731  A    between atoms: _1566  and  _1567
REMARK  732  A    between atoms: _1567  and  _1568
REMARK  733  A    between atoms: _1567  and  _1570
REMARK  734  A    between atoms: _1570  and  _1571
REMARK  735  A    between atoms: _1571  and  _1572
REMARK  736  A    between atoms: _1575  and  _1576
REMARK  737  A    between atoms: _1576  and  _1577
REMARK  738  A    between atoms: _1576  and  _1579
REMARK  739  A    between atoms: _1579  and  _1580
REMARK  740  A    between atoms: _1586  and  _1587
REMARK  741  A    between atoms: _1587  and  _1588
REMARK  742  A    between atoms: _1587  and  _1590
REMARK  743  A    between atoms: _1590  and  _1591
REMARK  744  A    between atoms: _1594  and  _1595
REMARK  745  A    between atoms: _1595  and  _1596
REMARK  746  A    between atoms: _1598  and  _1599
REMARK  747  A    between atoms: _1599  and  _1600
REMARK  748  A    between atoms: _1599  and  _1602
REMARK  749  A    between atoms: _1602  and  _1603
REMARK  750  A    between atoms: _1611  and  _1612
REMARK  751  A    between atoms: _1617  and  _1618
REMARK  752  A    between atoms: _1618  and  _1619
REMARK  753  A    between atoms: _1618  and  _1621
REMARK  754  A    between atoms: _1621  and  _1622
REMARK  755  A    between atoms: _1625  and  _1626
REMARK  756  A    between atoms: _1626  and  _1627
REMARK  757  A    between atoms: _1626  and  _1629
REMARK  758  A    between atoms: _1632  and  _1633
REMARK  759  A    between atoms: _1633  and  _1634
REMARK  760  A    between atoms: _1633  and  _1636
REMARK  761  A    between atoms: _1636  and  _1637
REMARK  762  A    between atoms: _1640  and  _1641
REMARK  763  A    between atoms: _1641  and  _1642
REMARK  764  A    between atoms: _1641  and  _1644
REMARK  765  A    between atoms: _1644  and  _1645
REMARK  766  A    between atoms: _1651  and  _1652
REMARK  767  A    between atoms: _1652  and  _1653
REMARK  768  A    between atoms: _1652  and  _1655
REMARK  769  A    between atoms: _1658  and  _1659
REMARK  770  A    between atoms: _1659  and  _1660
REMARK  771  A    between atoms: _1659  and  _1662
REMARK  772  A    between atoms: _1662  and  _1663
REMARK  773  A    between atoms: _1663  and  _1664
REMARK  774  A    between atoms: _1667  and  _1668
REMARK  775  A    between atoms: _1668  and  _1669
REMARK  776  A    between atoms: _1668  and  _1671
REMARK  777  A    between atoms: _1671  and  _1672
REMARK  778  A    between atoms: _1672  and  _1673
REMARK  779  A    between atoms: _1673  and  _1674
REMARK                            x       y       z     vdW  Elec       q    Type
REMARK                         _______ _______ _______ _____ _____    ______ ____
ROOT
ATOM      1  C   UNL     1       7.496  40.558  42.096  0.00  0.00    +0.115 C 
ATOM      2  S   UNL     1       8.818  41.519  42.859  0.00  0.00    -0.127 S 
ATOM      3  C   UNL     1       8.530  43.096  42.103  0.00  0.00    +0.070 C 
ATOM      4  C   UNL     1       7.691  43.251  41.597  0.00  0.00    +0.070 C 
ATOM      5  S   UNL     1       6.541  41.916  41.999  0.00  0.00    -0.127 S 
ENDROOT
TORSDOF 0
REMARK  Name = /Users/mlugowska/PhD/ML_residence_time_prediction/protein_files/5NYH_protein.pdb
REMARK  779 active torsions:
REMARK  status: ('A' for Active; 'I' for Inactive)
REMARK    1  A    between atoms: _2  and  _3
REMARK    2  A    between atoms: _2  and  _5
REMARK    3  A    between atoms: _5  and  _6
REMARK    4  A    between atoms: _6  and  _7
REMARK    5  A    between atoms: _10  and  _11
REMARK    6  A    between atoms: _11  and  _12
REMARK    7  A    between atoms: _11  and  _14
REMARK    8  A    between atoms: _17  and  _18
REMARK    9  A    between atoms: _18  and  _19
REMARK   10  A    between atoms: _18  and  _21
REMARK   11  A    between atoms: _21  and  _22
REMARK   12  A    between atoms: _22  and  _23
REMARK   13  A    between atoms: _26  and  _27
REMARK   14  A    between atoms: _27  and  _28
REMARK   15  A    between atoms: _27  and  _30
REMARK   16  A    between atoms: _33  and  _34
REMARK   17  A    between atoms: _34  and  _35
REMARK   18  A    between atoms: _34  and  _37
REMARK   19  A    between atoms: _37  and  _38
REMARK   20  A    between atoms: _44  and  _45
REMARK   21  A    between atoms: _45  and  _46
REMARK   22  A    between atoms: _49  and  _50
REMARK   23  A    between atoms: _50  and  _51
REMARK   24  A    between atoms: _50  and  _53
REMARK   25  A    between atoms: _53  and  _54
REMARK   26  A    between atoms: _60  and  _61
REMARK   27  A    between atoms: _61  and  _62
REMARK   28  A    between atoms: _61  and  _64
REMARK   29  A    between atoms: _64  and  _65
REMARK   30  A    between atoms: _65  and  _66
REMARK   31  A    between atoms: _69  and  _70
REMARK   32  A    between atoms: _70  and  _71
REMARK   33  A    between atoms: _74  and  _75
REMARK   34  A    between atoms: _75  and  _76
REMARK   35  A    between atoms: _75  and  _78
REMARK   36  A    between atoms: _78  and  _79
REMARK   37  A    between atoms: _79  and  _80
REMARK   38  A    between atoms: _83  and  _84
REMARK   39  A    between atoms: _84  and  _85
REMARK   40  A    between atoms: _84  and  _87
REMARK   41  A    between atoms: _87  and  _88
REMARK   42  A    between atoms: _91  and  _92
REMARK   43  A    between atoms: _92  and  _93
REMARK   44  A    between atoms: _96  and  _97
REMARK   45  A    between atoms: _97  and  _98
REMARK   46  A    between atoms: _97  and  _100
REMARK   47  A    between atoms: _100  and  _101
REMARK   48  A    between atoms: _101  and  _102
REMARK   49  A    between atoms: _105  and  _106
REMARK   50  A    between atoms: _106  and  _107
REMARK   51  A    between atoms: _106  and  _109
REMARK   52  A    between atoms: _109  and  _110
REMARK   53  A    between atoms: _113  and  _114
REMARK   54  A    between atoms: _114  and  _115
REMARK   55  A    between atoms: _114  and  _117
REMARK   56  A    between atoms: _117  and  _118
REMARK   57  A    between atoms: _118  and  _119
REMARK   58  A    between atoms: _121  and  _122
REMARK   59  A    between atoms: _122  and  _123
REMARK   60  A    between atoms: _122  and  _125
REMARK   61  A    between atoms: _127  and  _128
REMARK   62  A    between atoms: _128  and  _129
REMARK   63  A    between atoms: _128  and  _131
REMARK   64  A    between atoms: _131  and  _132
REMARK   65  A    between atoms: _135  and  _136
REMARK   66  A    between atoms: _136  and  _137
REMARK   67  A    between atoms: _136  and  _139
REMARK   68  A    between atoms: _139  and  _140
REMARK   69  A    between atoms: _143  and  _144
REMARK   70  A    between atoms: _144  and  _145
REMARK   71  A    between atoms: _144  and  _147
REMARK   72  A    between atoms: _147  and  _148
REMARK   73  A    between atoms: _151  and  _152
REMARK   74  A    between atoms: _152  and  _153
REMARK   75  A    between atoms: _152  and  _155
REMARK   76  A    between atoms: _155  and  _156
REMARK   77  A    between atoms: _159  and  _160
REMARK   78  A    between atoms: _160  and  _161
REMARK   79  A    between atoms: _160  and  _163
REMARK   80  A    between atoms: _166  and  _167
REMARK   81  A    between atoms: _167  and  _168
REMARK   82  A    between atoms: _167  and  _170
REMARK   83  A    between atoms: _170  and  _171
REMARK   84  A    between atoms: _177  and  _178
REMARK   85  A    between atoms: _178  and  _179
REMARK   86  A    between atoms: _178  and  _181
REMARK   87  A    between atoms: _181  and  _182
REMARK   88  A    between atoms: _189  and  _190
REMARK   89  A    between atoms: _190  and  _191
REMARK   90  A    between atoms: _190  and  _193
REMARK   91  A    between atoms: _195  and  _196
REMARK   92  A    between atoms: _196  and  _197
REMARK   93  A    between atoms: _196  and  _199
REMARK   94  A    between atoms: _199  and  _200
REMARK   95  A    between atoms: _203  and  _204
REMARK   96  A    between atoms: _204  and  _205
REMARK   97  A    between atoms: _204  and  _207
REMARK   98  A    between atoms: _207  and  _208
REMARK   99  A    between atoms: _208  and  _209
REMARK  100  A    between atoms: _209  and  _210
REMARK  101  A    between atoms: _212  and  _213
REMARK  102  A    between atoms: _213  and  _214
REMARK  103  A    between atoms: _213  and  _216
REMARK  104  A    between atoms: _216  and  _217
REMARK  105  A    between atoms: _217  and  _218
REMARK  106  A    between atoms: _221  and  _222
REMARK  107  A    between atoms: _222  and  _223
REMARK  108  A    between atoms: _222  and  _225
REMARK  109  A    between atoms: _225  and  _226
REMARK  110  A    between atoms: _229  and  _230
REMARK  111  A    between atoms: _230  and  _231
REMARK  112  A    between atoms: _230  and  _233
REMARK  113  A    between atoms: _233  and  _234
REMARK  114  A    between atoms: _240  and  _241
REMARK  115  A    between atoms: _241  and  _242
REMARK  116  A    between atoms: _241  and  _244
REMARK  117  A    between atoms: _244  and  _245
REMARK  118  A    between atoms: _248  and  _249
REMARK  119  A    between atoms: _249  and  _250
REMARK  120  A    between atoms: _249  and  _252
REMARK  121  A    between atoms: _252  and  _253
REMARK  122  A    between atoms: _253  and  _254
REMARK  123  A    between atoms: _254  and  _255
REMARK  124  A    between atoms: _259  and  _260
REMARK  125  A    between atoms: _260  and  _261
REMARK  126  A    between atoms: _260  and  _263
REMARK  127  A    between atoms: _263  and  _264
REMARK  128  A    between atoms: _264  and  _265
REMARK  129  A    between atoms: _268  and  _269
REMARK  130  A    between atoms: _269  and  _270
REMARK  131  A    between atoms: _269  and  _272
REMARK  132  A    between atoms: _272  and  _273
REMARK  133  A    between atoms: _276  and  _277
REMARK  134  A    between atoms: _277  and  _278
REMARK  135  A    between atoms: _277  and  _280
REMARK  136  A    between atoms: _280  and  _281
REMARK  137  A    between atoms: _284  and  _285
REMARK  138  A    between atoms: _285  and  _286
REMARK  139  A    between atoms: _285  and  _288
REMARK  140  A    between atoms: _290  and  _291
REMARK  141  A    between atoms: _291  and  _292
REMARK  142  A    between atoms: _291  and  _294
REMARK  143  A    between atoms: _294  and  _295
REMARK  144  A    between atoms: _298  and  _299
REMARK  145  A    between atoms: _299  and  _300
REMARK  146  A    between atoms: _299  and  _302
REMARK  147  A    between atoms: _304  and  _305
REMARK  148  A    between atoms: _305  and  _306
REMARK  149  A    between atoms: _305  and  _308
REMARK  150  A    between atoms: _310  and  _311
REMARK  151  A    between atoms: _311  and  _312
REMARK  152  A    between atoms: _311  and  _314
REMARK  153  A    between atoms: _314  and  _315
REMARK  154  A    between atoms: _318  and  _319
REMARK  155  A    between atoms: _319  and  _320
REMARK  156  A    between atoms: _323  and  _324
REMARK  157  A    between atoms: _324  and  _325
REMARK  158  A    between atoms: _324  and  _327
REMARK  159  A    between atoms: _327  and  _328
REMARK  160  A    between atoms: _331  and  _332
REMARK  161  A    between atoms: _332  and  _333
REMARK  162  A    between atoms: _332  and  _335
REMARK  163  A    between atoms: _335  and  _336
REMARK  164  A    between atoms: _339  and  _340
REMARK  165  A    between atoms: _340  and  _341
REMARK  166  A    between atoms: _340  and  _343
REMARK  167  A    between atoms: _343  and  _344
REMARK  168  A    between atoms: _344  and  _345
REMARK  169  A    between atoms: _345  and  _346
REMARK  170  A    between atoms: _348  and  _349
REMARK  171  A    between atoms: _349  and  _350
REMARK  172  A    between atoms: _349  and  _352
REMARK  173  A    between atoms: _352  and  _353
REMARK  174  A    between atoms: _356  and  _357
REMARK  175  A    between atoms: _357  and  _358
REMARK  176  A    between atoms: _357  and  _360
REMARK  177  A    between atoms: _360  and  _361
REMARK  178  A    between atoms: _361  and  _362
REMARK  179  A    between atoms: _362  and  _363
REMARK  180  A    between atoms: _367  and  _368
REMARK  181  A    between atoms: _368  and  _369
REMARK  182  A    between atoms: _368  and  _371
REMARK  183  A    between atoms: _371  and  _372
REMARK  184  A    between atoms: _379  and  _380
REMARK  185  A    between atoms: _380  and  _381
REMARK  186  A    between atoms: _380  and  _383
REMARK  187  A    between atoms: _383  and  _384
REMARK  188  A    between atoms: _384  and  _385
REMARK  189  A    between atoms: _388  and  _389
REMARK  190  A    between atoms: _389  and  _390
REMARK  191  A    between atoms: _389  and  _392
REMARK  192  A    between atoms: _394  and  _395
REMARK  193  A    between atoms: _395  and  _396
REMARK  194  A    between atoms: _395  and  _398
REMARK  195  A    between atoms: _398  and  _399
REMARK  196  A    between atoms: _402  and  _403
REMARK  197  A    between atoms: _403  and  _404
REMARK  198  A    between atoms: _403  and  _406
REMARK  199  A    between atoms: _409  and  _410
REMARK  200  A    between atoms: _410  and  _411
REMARK  201  A    between atoms: _410  and  _413
REMARK  202  A    between atoms: _413  and  _414
REMARK  203  A    between atoms: _418  and  _419
REMARK  204  A    between atoms: _424  and  _425
REMARK  205  A    between atoms: _425  and  _426
REMARK  206  A    between atoms: _425  and  _428
REMARK  207  A    between atoms: _430  and  _431
REMARK  208  A    between atoms: _431  and  _432
REMARK  209  A    between atoms: _431  and  _434
REMARK  210  A    between atoms: _434  and  _435
REMARK  211  A    between atoms: _435  and  _436
REMARK  212  A    between atoms: _436  and  _437
REMARK  213  A    between atoms: _439  and  _440
REMARK  214  A    between atoms: _440  and  _441
REMARK  215  A    between atoms: _440  and  _443
REMARK  216  A    between atoms: _443  and  _444
REMARK  217  A    between atoms: _447  and  _448
REMARK  218  A    between atoms: _448  and  _449
REMARK  219  A    between atoms: _448  and  _451
REMARK  220  A    between atoms: _451  and  _452
REMARK  221  A    between atoms: _455  and  _456
REMARK  222  A    between atoms: _456  and  _457
REMARK  223  A    between atoms: _456  and  _459
REMARK  224  A    between atoms: _461  and  _462
REMARK  225  A    between atoms: _462  and  _463
REMARK  226  A    between atoms: _465  and  _466
REMARK  227  A    between atoms: _466  and  _467
REMARK  228  A    between atoms: _466  and  _469
REMARK  229  A    between atoms: _469  and  _470
REMARK  230  A    between atoms: _470  and  _471
REMARK  231  A    between atoms: _471  and  _472
REMARK  232  A    between atoms: _474  and  _475
REMARK  233  A    between atoms: _475  and  _476
REMARK  234  A    between atoms: _475  and  _478
REMARK  235  A    between atoms: _478  and  _479
REMARK  236  A    between atoms: _479  and  _480
REMARK  237  A    between atoms: _483  and  _484
REMARK  238  A    between atoms: _484  and  _485
REMARK  239  A    between atoms: _484  and  _487
REMARK  240  A    between atoms: _487  and  _488
REMARK  241  A    between atoms: _491  and  _492
REMARK  242  A    between atoms: _492  and  _493
REMARK  243  A    between atoms: _492  and  _495
REMARK  244  A    between atoms: _495  and  _496
REMARK  245  A    between atoms: _501  and  _502
REMARK  246  A    between atoms: _502  and  _503
REMARK  247  A    between atoms: _502  and  _505
REMARK  248  A    between atoms: _505  and  _506
REMARK  249  A    between atoms: _509  and  _510
REMARK  250  A    between atoms: _510  and  _511
REMARK  251  A    between atoms: _510  and  _513
REMARK  252  A    between atoms: _513  and  _514
REMARK  253  A    between atoms: _517  and  _518
REMARK  254  A    between atoms: _518  and  _519
REMARK  255  A    between atoms: _518  and  _521
REMARK  256  A    between atoms: _521  and  _522
REMARK  257  A    between atoms: _525  and  _526
REMARK  258  A    between atoms: _526  and  _527
REMARK  259  A    between atoms: _526  and  _529
REMARK  260  A    between atoms: _529  and  _530
REMARK  261  A    between atoms: _534  and  _535
REMARK  262  A    between atoms: _540  and  _541
REMARK  263  A    between atoms: _541  and  _542
REMARK  264  A    between atoms: _541  and  _544
REMARK  265  A    between atoms: _544  and  _545
REMARK  266  A    between atoms: _548  and  _549
REMARK  267  A    between atoms: _549  and  _552
REMARK  268  A    between atoms: _552  and  _553
REMARK  269  A    between atoms: _553  and  _554
REMARK  270  A    between atoms: _554  and  _555
REMARK  271  A    between atoms: _568  and  _569
REMARK  272  A    between atoms: _576  and  _577
REMARK  273  A    between atoms: _576  and  _579
REMARK  274  A    between atoms: _579  and  _580
REMARK  275  A    between atoms: _583  and  _584
REMARK  276  A    between atoms: _584  and  _585
REMARK  277  A    between atoms: _584  and  _587
REMARK  278  A    between atoms: _587  and  _588
REMARK  279  A    between atoms: _588  and  _589
REMARK  280  A    between atoms: _589  and  _590
REMARK  281  A    between atoms: _594  and  _595
REMARK  282  A    between atoms: _595  and  _596
REMARK  283  A    between atoms: _595  and  _598
REMARK  284  A    between atoms: _601  and  _602
REMARK  285  A    between atoms: _602  and  _603
REMARK  286  A    between atoms: _602  and  _605
REMARK  287  A    between atoms: _605  and  _606
REMARK  288  A    between atoms: _609  and  _610
REMARK  289  A    between atoms: _610  and  _611
REMARK  290  A    between atoms: _610  and  _613
REMARK  291  A    between atoms: _616  and  _617
REMARK  292  A    between atoms: _617  and  _618
REMARK  293  A    between atoms: _617  and  _620
REMARK  294  A    between atoms: _620  and  _621
REMARK  295  A    between atoms: _624  and  _625
REMARK  296  A    between atoms: _625  and  _626
REMARK  297  A    between atoms: _625  and  _628
REMARK  298  A    between atoms: _631  and  _632
REMARK  299  A    between atoms: _632  and  _633
REMARK  300  A    between atoms: _632  and  _635
REMARK  301  A    between atoms: _635  and  _636
REMARK  302  A    between atoms: _639  and  _640
REMARK  303  A    between atoms: _640  and  _641
REMARK  304  A    between atoms: _640  and  _643
REMARK  305  A    between atoms: _646  and  _647
REMARK  306  A    between atoms: _647  and  _648
REMARK  307  A    between atoms: _650  and  _651
REMARK  308  A    between atoms: _651  and  _652
REMARK  309  A    between atoms: _651  and  _654
REMARK  310  A    between atoms: _654  and  _655
REMARK  311  A    between atoms: _658  and  _659
REMARK  312  A    between atoms: _659  and  _660
REMARK  313  A    between atoms: _662  and  _663
REMARK  314  A    between atoms: _663  and  _664
REMARK  315  A    between atoms: _663  and  _666
REMARK  316  A    between atoms: _666  and  _667
REMARK  317  A    between atoms: _667  and  _668
REMARK  318  A    between atoms: _670  and  _671
REMARK  319  A    between atoms: _671  and  _672
REMARK  320  A    between atoms: _671  and  _674
REMARK  321  A    between atoms: _677  and  _678
REMARK  322  A    between atoms: _678  and  _679
REMARK  323  A    between atoms: _678  and  _681
REMARK  324  A    between atoms: _681  and  _682
REMARK  325  A    between atoms: _682  and  _683
REMARK  326  A    between atoms: _683  and  _684
REMARK  327  A    between atoms: _686  and  _687
REMARK  328  A    between atoms: _687  and  _688
REMARK  329  A    between atoms: _691  and  _692
REMARK  330  A    between atoms: _692  and  _693
REMARK  331  A    between atoms: _692  and  _695
REMARK  332  A    between atoms: _695  and  _696
REMARK  333  A    between atoms: _699  and  _700
REMARK  334  A    between atoms: _700  and  _701
REMARK  335  A    between atoms: _700  and  _703
REMARK  336  A    between atoms: _703  and  _704
REMARK  337  A    between atoms: _707  and  _708
REMARK  338  A    between atoms: _708  and  _709
REMARK  339  A    between atoms: _708  and  _711
REMARK  340  A    between atoms: _711  and  _712
REMARK  341  A    between atoms: _715  and  _716
REMARK  342  A    between atoms: _716  and  _717
REMARK  343  A    between atoms: _716  and  _719
REMARK  344  A    between atoms: _719  and  _720
REMARK  345  A    between atoms: _723  and  _724
REMARK  346  A    between atoms: _724  and  _725
REMARK  347  A    between atoms: _724  and  _727
REMARK  348  A    between atoms: _727  and  _728
REMARK  349  A    between atoms: _731  and  _732
REMARK  350  A    between atoms: _732  and  _733
REMARK  351  A    between atoms: _732  and  _735
REMARK  352  A    between atoms: _735  and  _736
REMARK  353  A    between atoms: _739  and  _740
REMARK  354  A    between atoms: _740  and  _741
REMARK  355  A    between atoms: _743  and  _744
REMARK  356  A    between atoms: _744  and  _745
REMARK  357  A    between atoms: _744  and  _747
REMARK  358  A    between atoms: _750  and  _751
REMARK  359  A    between atoms: _751  and  _752
REMARK  360  A    between atoms: _751  and  _754
REMARK  361  A    between atoms: _754  and  _755
REMARK  362  A    between atoms: _758  and  _759
REMARK  363  A    between atoms: _759  and  _760
REMARK  364  A    between atoms: _763  and  _764
REMARK  365  A    between atoms: _764  and  _765
REMARK  366  A    between atoms: _764  and  _767
REMARK  367  A    between atoms: _767  and  _768
REMARK  368  A    between atoms: _768  and  _769
REMARK  369  A    between atoms: _769  and  _770
REMARK  370  A    between atoms: _772  and  _773
REMARK  371  A    between atoms: _773  and  _774
REMARK  372  A    between atoms: _773  and  _776
REMARK  373  A    between atoms: _778  and  _779
REMARK  374  A    between atoms: _779  and  _780
REMARK  375  A    between atoms: _782  and  _783
REMARK  376  A    between atoms: _783  and  _784
REMARK  377  A    between atoms: _783  and  _786
REMARK  378  A    between atoms: _789  and  _790
REMARK  379  A    between atoms: _790  and  _791
REMARK  380  A    between atoms: _790  and  _793
REMARK  381  A    between atoms: _793  and  _794
REMARK  382  A    between atoms: _794  and  _795
REMARK  383  A    between atoms: _795  and  _796
REMARK  384  A    between atoms: _798  and  _799
REMARK  385  A    between atoms: _799  and  _800
REMARK  386  A    between atoms: _803  and  _804
REMARK  387  A    between atoms: _804  and  _805
REMARK  388  A    between atoms: _804  and  _807
REMARK  389  A    between atoms: _807  and  _808
REMARK  390  A    between atoms: _814  and  _815
REMARK  391  A    between atoms: _815  and  _816
REMARK  392  A    between atoms: _815  and  _818
REMARK  393  A    between atoms: _818  and  _819
REMARK  394  A    between atoms: _819  and  _820
REMARK  395  A    between atoms: _822  and  _823
REMARK  396  A    between atoms: _823  and  _824
REMARK  397  A    between atoms: _823  and  _826
REMARK  398  A    between atoms: _826  and  _827
REMARK  399  A    between atoms: _827  and  _828
REMARK  400  A    between atoms: _831  and  _832
REMARK  401  A    between atoms: _832  and  _833
REMARK  402  A    between atoms: _836  and  _837
REMARK  403  A    between atoms: _837  and  _838
REMARK  404  A    between atoms: _837  and  _840
REMARK  405  A    between atoms: _840  and  _841
REMARK  406  A    between atoms: _844  and  _845
REMARK  407  A    between atoms: _845  and  _846
REMARK  408  A    between atoms: _845  and  _848
REMARK  409  A    between atoms: _848  and  _849
REMARK  410  A    between atoms: _849  and  _850
REMARK  411  A    between atoms: _853  and  _854
REMARK  412  A    between atoms: _854  and  _855
REMARK  413  A    between atoms: _858  and  _859
REMARK  414  A    between atoms: _859  and  _860
REMARK  415  A    between atoms: _862  and  _863
REMARK  416  A    between atoms: _863  and  _864
REMARK  417  A    between atoms: _867  and  _868
REMARK  418  A    between atoms: _868  and  _869
REMARK  419  A    between atoms: _868  and  _871
REMARK  420  A    between atoms: _871  and  _872
REMARK  421  A    between atoms: _875  and  _876
REMARK  422  A    between atoms: _876  and  _877
REMARK  423  A    between atoms: _876  and  _879
REMARK  424  A    between atoms: _879  and  _880
REMARK  425  A    between atoms: _883  and  _884
REMARK  426  A    between atoms: _884  and  _887
REMARK  427  A    between atoms: _906  and  _907
REMARK  428  A    between atoms: _906  and  _909
REMARK  429  A    between atoms: _909  and  _910
REMARK  430  A    between atoms: _913  and  _914
REMARK  431  A    between atoms: _914  and  _915
REMARK  432  A    between atoms: _917  and  _918
REMARK  433  A    between atoms: _918  and  _919
REMARK  434  A    between atoms: _918  and  _921
REMARK  435  A    between atoms: _921  and  _922
REMARK  436  A    between atoms: _922  and  _923
REMARK  437  A    between atoms: _926  and  _927
REMARK  438  A    between atoms: _927  and  _928
REMARK  439  A    between atoms: _927  and  _930
REMARK  440  A    between atoms: _930  and  _931
REMARK  441  A    between atoms: _937  and  _938
REMARK  442  A    between atoms: _938  and  _939
REMARK  443  A    between atoms: _941  and  _942
REMARK  444  A    between atoms: _942  and  _943
REMARK  445  A    between atoms: _942  and  _945
REMARK  446  A    between atoms: _948  and  _949
REMARK  447  A    between atoms: _949  and  _950
REMARK  448  A    between atoms: _952  and  _953
REMARK  449  A    between atoms: _953  and  _954
REMARK  450  A    between atoms: _953  and  _956
REMARK  451  A    between atoms: _956  and  _957
REMARK  452  A    between atoms: _963  and  _964
REMARK  453  A    between atoms: _964  and  _965
REMARK  454  A    between atoms: _964  and  _967
REMARK  455  A    between atoms: _967  and  _968
REMARK  456  A    between atoms: _975  and  _976
REMARK  457  A    between atoms: _976  and  _977
REMARK  458  A    between atoms: _976  and  _979
REMARK  459  A    between atoms: _981  and  _982
REMARK  460  A    between atoms: _982  and  _983
REMARK  461  A    between atoms: _986  and  _987
REMARK  462  A    between atoms: _987  and  _988
REMARK  463  A    between atoms: _987  and  _990
REMARK  464  A    between atoms: _990  and  _991
REMARK  465  A    between atoms: _998  and  _999
REMARK  466  A    between atoms: _999  and  _1000
REMARK  467  A    between atoms: _999  and  _1002
REMARK  468  A    between atoms: _1002  and  _1003
REMARK  469  A    between atoms: _1006  and  _1007
REMARK  470  A    between atoms: _1007  and  _1008
REMARK  471  A    between atoms: _1007  and  _1010
REMARK  472  A    between atoms: _1013  and  _1014
REMARK  473  A    between atoms: _1014  and  _1015
REMARK  474  A    between atoms: _1018  and  _1019
REMARK  475  A    between atoms: _1019  and  _1020
REMARK  476  A    between atoms: _1019  and  _1022
REMARK  477  A    between atoms: _1023  and  _1024
REMARK  478  A    between atoms: _1027  and  _1028
REMARK  479  A    between atoms: _1028  and  _1029
REMARK  480  A    between atoms: _1028  and  _1031
REMARK  481  A    between atoms: _1031  and  _1032
REMARK  482  A    between atoms: _1032  and  _1033
REMARK  483  A    between atoms: _1033  and  _1034
REMARK  484  A    between atoms: _1036  and  _1037
REMARK  485  A    between atoms: _1037  and  _1038
REMARK  486  A    between atoms: _1037  and  _1040
REMARK  487  A    between atoms: _1043  and  _1044
REMARK  488  A    between atoms: _1044  and  _1045
REMARK  489  A    between atoms: _1044  and  _1047
REMARK  490  A    between atoms: _1050  and  _1051
REMARK  491  A    between atoms: _1051  and  _1052
REMARK  492  A    between atoms: _1051  and  _1054
REMARK  493  A    between atoms: _1057  and  _1058
REMARK  494  A    between atoms: _1058  and  _1059
REMARK  495  A    between atoms: _1058  and  _1061
REMARK  496  A    between atoms: _1061  and  _1062
REMARK  497  A    between atoms: _1065  and  _1066
REMARK  498  A    between atoms: _1066  and  _1067
REMARK  499  A    between atoms: _1066  and  _1069
REMARK  500  A    between atoms: _1072  and  _1073
REMARK  501  A    between atoms: _1073  and  _1074
REMARK  502  A    between atoms: _1073  and  _1076
REMARK  503  A    between atoms: _1076  and  _1077
REMARK  504  A    between atoms: _1077  and  _1078
REMARK  505  A    between atoms: _1078  and  _1079
REMARK  506  A    between atoms: _1081  and  _1082
REMARK  507  A    between atoms: _1082  and  _1083
REMARK  508  A    between atoms: _1082  and  _1085
REMARK  509  A    between atoms: _1085  and  _1086
REMARK  510  A    between atoms: _1091  and  _1092
REMARK  511  A    between atoms: _1092  and  _1093
REMARK  512  A    between atoms: _1092  and  _1095
REMARK  513  A    between atoms: _1095  and  _1096
REMARK  514  A    between atoms: _1099  and  _1100
REMARK  515  A    between atoms: _1100  and  _1101
REMARK  516  A    between atoms: _1100  and  _1103
REMARK  517  A    between atoms: _1103  and  _1104
REMARK  518  A    between atoms: _1107  and  _1108
REMARK  519  A    between atoms: _1108  and  _1111
REMARK  520  A    between atoms: _1111  and  _1112
REMARK  521  A    between atoms: _1125  and  _1127
REMARK  522  A    between atoms: _1134  and  _1135
REMARK  523  A    between atoms: _1134  and  _1137
REMARK  524  A    between atoms: _1137  and  _1138
REMARK  525  A    between atoms: _1138  and  _1139
REMARK  526  A    between atoms: _1142  and  _1143
REMARK  527  A    between atoms: _1143  and  _1144
REMARK  528  A    between atoms: _1143  and  _1146
REMARK  529  A    between atoms: _1146  and  _1147
REMARK  530  A    between atoms: _1154  and  _1155
REMARK  531  A    between atoms: _1155  and  _1156
REMARK  532  A    between atoms: _1159  and  _1160
REMARK  533  A    between atoms: _1160  and  _1161
REMARK  534  A    between atoms: _1160  and  _1163
REMARK  535  A    between atoms: _1163  and  _1164
REMARK  536  A    between atoms: _1173  and  _1174
REMARK  537  A    between atoms: _1174  and  _1175
REMARK  538  A    between atoms: _1174  and  _1177
REMARK  539  A    between atoms: _1177  and  _1178
REMARK  540  A    between atoms: _1178  and  _1179
REMARK  541  A    between atoms: _1182  and  _1183
REMARK  542  A    between atoms: _1183  and  _1184
REMARK  543  A    between atoms: _1183  and  _1186
REMARK  544  A    between atoms: _1188  and  _1189
REMARK  545  A    between atoms: _1189  and  _1190
REMARK  546  A    between atoms: _1189  and  _1192
REMARK  547  A    between atoms: _1194  and  _1195
REMARK  548  A    between atoms: _1195  and  _1196
REMARK  549  A    between atoms: _1199  and  _1200
REMARK  550  A    between atoms: _1200  and  _1201
REMARK  551  A    between atoms: _1203  and  _1204
REMARK  552  A    between atoms: _1204  and  _1205
REMARK  553  A    between atoms: _1207  and  _1208
REMARK  554  A    between atoms: _1208  and  _1209
REMARK  555  A    between atoms: _1208  and  _1211
REMARK  556  A    between atoms: _1213  and  _1214
REMARK  557  A    between atoms: _1214  and  _1215
REMARK  558  A    between atoms: _1214  and  _1217
REMARK  559  A    between atoms: _1217  and  _1218
REMARK  560  A    between atoms: _1224  and  _1225
REMARK  561  A    between atoms: _1225  and  _1226
REMARK  562  A    between atoms: _1225  and  _1228
REMARK  563  A    between atoms: _1231  and  _1232
REMARK  564  A    between atoms: _1232  and  _1233
REMARK  565  A    between atoms: _1232  and  _1235
REMARK  566  A    between atoms: _1238  and  _1239
REMARK  567  A    between atoms: _1239  and  _1240
REMARK  568  A    between atoms: _1239  and  _1242
REMARK  569  A    between atoms: _1242  and  _1243
REMARK  570  A    between atoms: _1243  and  _1244
REMARK  571  A    between atoms: _1244  and  _1245
REMARK  572  A    between atoms: _1249  and  _1250
REMARK  573  A    between atoms: _1250  and  _1251
REMARK  574  A    between atoms: _1250  and  _1253
REMARK  575  A    between atoms: _1256  and  _1257
REMARK  576  A    between atoms: _1257  and  _1258
REMARK  577  A    between atoms: _1257  and  _1260
REMARK  578  A    between atoms: _1260  and  _1261
REMARK  579  A    between atoms: _1264  and  _1265
REMARK  580  A    between atoms: _1265  and  _1266
REMARK  581  A    between atoms: _1265  and  _1268
REMARK  582  A    between atoms: _1271  and  _1272
REMARK  583  A    between atoms: _1272  and  _1273
REMARK  584  A    between atoms: _1275  and  _1276
REMARK  585  A    between atoms: _1276  and  _1277
REMARK  586  A    between atoms: _1276  and  _1279
REMARK  587  A    between atoms: _1279  and  _1280
REMARK  588  A    between atoms: _1280  and  _1281
REMARK  589  A    between atoms: _1285  and  _1286
REMARK  590  A    between atoms: _1291  and  _1293
REMARK  591  A    between atoms: _1298  and  _1299
REMARK  592  A    between atoms: _1299  and  _1301
REMARK  593  A    between atoms: _1300  and  _1301
REMARK  594  A    between atoms: _1304  and  _1305
REMARK  595  A    between atoms: _1305  and  _1306
REMARK  596  A    between atoms: _1308  and  _1309
REMARK  597  A    between atoms: _1309  and  _1310
REMARK  598  A    between atoms: _1309  and  _1312
REMARK  599  A    between atoms: _1312  and  _1313
REMARK  600  A    between atoms: _1313  and  _1314
REMARK  601  A    between atoms: _1314  and  _1315
REMARK  602  A    between atoms: _1319  and  _1320
REMARK  603  A    between atoms: _1320  and  _1321
REMARK  604  A    between atoms: _1323  and  _1324
REMARK  605  A    between atoms: _1324  and  _1325
REMARK  606  A    between atoms: _1324  and  _1327
REMARK  607  A    between atoms: _1330  and  _1331
REMARK  608  A    between atoms: _1331  and  _1332
REMARK  609  A    between atoms: _1331  and  _1334
REMARK  610  A    between atoms: _1334  and  _1335
REMARK  611  A    between atoms: _1335  and  _1336
REMARK  612  A    between atoms: _1336  and  _1337
REMARK  613  A    between atoms: _1339  and  _1340
REMARK  614  A    between atoms: _1340  and  _1341
REMARK  615  A    between atoms: _1340  and  _1343
REMARK  616  A    between atoms: _1346  and  _1347
REMARK  617  A    between atoms: _1347  and  _1348
REMARK  618  A    between atoms: _1347  and  _1350
REMARK  619  A    between atoms: _1350  and  _1351
REMARK  620  A    between atoms: _1354  and  _1355
REMARK  621  A    between atoms: _1355  and  _1356
REMARK  622  A    between atoms: _1355  and  _1358
REMARK  623  A    between atoms: _1358  and  _1359
REMARK  624  A    between atoms: _1362  and  _1363
REMARK  625  A    between atoms: _1363  and  _1364
REMARK  626  A    between atoms: _1363  and  _1366
REMARK  627  A    between atoms: _1366  and  _1367
REMARK  628  A    between atoms: _1372  and  _1373
REMARK  629  A    between atoms: _1373  and  _1374
REMARK  630  A    between atoms: _1373  and  _1376
REMARK  631  A    between atoms: _1376  and  _1377
REMARK  632  A    between atoms: _1380  and  _1381
REMARK  633  A    between atoms: _1381  and  _1382
REMARK  634  A    between atoms: _1381  and  _1384
REMARK  635  A    between atoms: _1384  and  _1385
REMARK  636  A    between atoms: _1385  and  _1386
REMARK  637  A    between atoms: _1386  and  _1387
REMARK  638  A    between atoms: _1389  and  _1390
REMARK  639  A    between atoms: _1390  and  _1391
REMARK  640  A    between atoms: _1390  and  _1393
REMARK  641  A    between atoms: _1393  and  _1394
REMARK  642  A    between atoms: _1394  and  _1395
REMARK  643  A    between atoms: _1398  and  _1399
REMARK  644  A    between atoms: _1399  and  _1400
REMARK  645  A    between atoms: _1399  and  _1402
REMARK  646  A    between atoms: _1402  and  _1403
REMARK  647  A    between atoms: _1406  and  _1407
REMARK  648  A    between atoms: _1407  and  _1408
REMARK  649  A    between atoms: _1407  and  _1410
REMARK  650  A    between atoms: _1410  and  _1411
REMARK  651  A    between atoms: _1411  and  _1412
REMARK  652  A    between atoms: _1415  and  _1416
REMARK  653  A    between atoms: _1416  and  _1417
REMARK  654  A    between atoms: _1416  and  _1419
REMARK  655  A    between atoms: _1422  and  _1423
REMARK  656  A    between atoms: _1423  and  _1424
REMARK  657  A    between atoms: _1423  and  _1426
REMARK  658  A    between atoms: _1426  and  _1427
REMARK  659  A    between atoms: _1427  and  _1428
REMARK  660  A    between atoms: _1431  and  _1432
REMARK  661  A    between atoms: _1432  and  _1433
REMARK  662  A    between atoms: _1432  and  _1435
REMARK  663  A    between atoms: _1435  and  _1436
REMARK  664  A    between atoms: _1443  and  _1444
REMARK  665  A    between atoms: _1444  and  _1445
REMARK  666  A    between atoms: _1444  and  _1447
REMARK  667  A    between atoms: _1447  and  _1448
REMARK  668  A    between atoms: _1451  and  _1452
REMARK  669  A    between atoms: _1452  and  _1453
REMARK  670  A    between atoms: _1452  and  _1455
REMARK  671  A    between atoms: _1455  and  _1456
REMARK  672  A    between atoms: _1456  and  _1457
REMARK  673  A    between atoms: _1460  and  _1461
REMARK  674  A    between atoms: _1461  and  _1462
REMARK  675  A    between atoms: _1461  and  _1464
REMARK  676  A    between atoms: _1464  and  _1465
REMARK  677  A    between atoms: _1465  and  _1466
REMARK  678  A    between atoms: _1469  and  _1470
REMARK  679  A    between atoms: _1470  and  _1471
REMARK  680  A    between atoms: _1470  and  _1473
REMARK  681  A    between atoms: _1473  and  _1474
REMARK  682  A    between atoms: _1474  and  _1475
REMARK  683  A    between atoms: _1475  and  _1476
REMARK  684  A    between atoms: _1480  and  _1481
REMARK  685  A    between atoms: _1481  and  _1482
REMARK  686  A    between atoms: _1481  and  _1484
REMARK  687  A    between atoms: _1484  and  _1485
REMARK  688  A    between atoms: _1485  and  _1486
REMARK  689  A    between atoms: _1486  and  _1487
REMARK  690  A    between atoms: _1491  and  _1492
REMARK  691  A    between atoms: _1492  and  _1493
REMARK  692  A    between atoms: _1492  and  _1495
REMARK  693  A    between atoms: _1495  and  _1496
REMARK  694  A    between atoms: _1499  and  _1500
REMARK  695  A    between atoms: _1500  and  _1501
REMARK  696  A    between atoms: _1500  and  _1503
REMARK  697  A    between atoms: _1503  and  _1504
REMARK  698  A    between atoms: _1504  and  _1505
REMARK  699  A    between atoms: _1505  and  _1506
REMARK  700  A    between atoms: _1508  and  _1509
REMARK  701  A    between atoms: _1509  and  _1510
REMARK  702  A    between atoms: _1509  and  _1512
REMARK  703  A    between atoms: _1512  and  _1513
REMARK  704  A    between atoms: _1513  and  _1514
REMARK  705  A    between atoms: _1517  and  _1518
REMARK  706  A    between atoms: _1518  and  _1519
REMARK  707  A    between atoms: _1518  and  _1521
REMARK  708  A    between atoms: _1521  and  _1522
REMARK  709  A    between atoms: _1525  and  _1526
REMARK  710  A    between atoms: _1526  and  _1527
REMARK  711  A    between atoms: _1526  and  _1529
REMARK  712  A    between atoms: _1532  and  _1533
REMARK  713  A    between atoms: _1533  and  _1534
REMARK  714  A    between atoms: _1533  and  _1536
REMARK  715  A    between atoms: _1536  and  _1537
REMARK  716  A    between atoms: _1537  and  _1538
REMARK  717  A    between atoms: _1538  and  _1539
REMARK  718  A    between atoms: _1541  and  _1542
REMARK  719  A    between atoms: _1542  and  _1543
REMARK  720  A    between atoms: _1542  and  _1545
REMARK  721  A    between atoms: _1545  and  _1546
REMARK  722  A    between atoms: _1546  and  _1547
REMARK  723  A    between atoms: _1547  and  _1548
REMARK  724  A    between atoms: _1550  and  _1551
REMARK  725  A    between atoms: _1551  and  _1552
REMARK  726  A    between atoms: _1551  and  _1554
REMARK  727  A    between atoms: _1554  and  _1555
REMARK  728  A    between atoms: _1560  and  _1561
REMARK  729  A    between atoms: _1561  and  _1562
REMARK  730  A    between atoms: _1561  and  _1564
REMARK  731  A    between atoms: _1566  and  _1567
REMARK  732  A    between atoms: _1567  and  _1568
REMARK  733  A    between atoms: _1567  and  _1570
REMARK  734  A    between atoms: _1570  and  _1571
REMARK  735  A    between atoms: _1571  and  _1572
REMARK  736  A    between atoms: _1575  and  _1576
REMARK  737  A    between atoms: _1576  and  _1577
REMARK  738  A    between atoms: _1576  and  _1579
REMARK  739  A    between atoms: _1579  and  _1580
REMARK  740  A    between atoms: _1586  and  _1587
REMARK  741  A    between atoms: _1587  and  _1588
REMARK  742  A    between atoms: _1587  and  _1590
REMARK  743  A    between atoms: _1590  and  _1591
REMARK  744  A    between atoms: _1594  and  _1595
REMARK  745  A    between atoms: _1595  and  _1596
REMARK  746  A    between atoms: _1598  and  _1599
REMARK  747  A    between atoms: _1599  and  _1600
REMARK  748  A    between atoms: _1599  and  _1602
REMARK  749  A    between atoms: _1602  and  _1603
REMARK  750  A    between atoms: _1611  and  _1612
REMARK  751  A    between atoms: _1617  and  _1618
REMARK  752  A    between atoms: _1618  and  _1619
REMARK  753  A    between atoms: _1618  and  _1621
REMARK  754  A    between atoms: _1621  and  _1622
REMARK  755  A    between atoms: _1625  and  _1626
REMARK  756  A    between atoms: _1626  and  _1627
REMARK  757  A    between atoms: _1626  and  _1629
REMARK  758  A    between atoms: _1632  and  _1633
REMARK  759  A    between atoms: _1633  and  _1634
REMARK  760  A    between atoms: _1633  and  _1636
REMARK  761  A    between atoms: _1636  and  _1637
REMARK  762  A    between atoms: _1640  and  _1641
REMARK  763  A    between atoms: _1641  and  _1642
REMARK  764  A    between atoms: _1641  and  _1644
REMARK  765  A    between atoms: _1644  and  _1645
REMARK  766  A    between atoms: _1651  and  _1652
REMARK  767  A    between atoms: _1652  and  _1653
REMARK  768  A    between atoms: _1652  and  _1655
REMARK  769  A    between atoms: _1658  and  _1659
REMARK  770  A    between atoms: _1659  and  _1660
REMARK  771  A    between atoms: _1659  and  _1662
REMARK  772  A    between atoms: _1662  and  _1663
REMARK  773  A    between atoms: _1663  and  _1664
REMARK  774  A    between atoms: _1667  and  _1668
REMARK  775  A    between atoms: _1668  and  _1669
REMARK  776  A    between atoms: _1668  and  _1671
REMARK  777  A    between atoms: _1671  and  _1672
REMARK  778  A    between atoms: _1672  and  _1673
REMARK  779  A    between atoms: _1673  and  _1674
REMARK                            x       y       z     vdW  Elec       q    Type
REMARK                         _______ _______ _______ _____ _____    ______ ____
ROOT
ATOM      1  C   UNK A  10       4.190  22.679  37.811  0.00  0.00    +0.173 C 
ENDROOT
BRANCH   1   4
ATOM      2  C   UNK A  10       6.097  24.056  38.580  0.00  0.00    +0.262 C 
ATOM      3  O   UNK A  10       6.355  23.304  39.515  0.00  0.00    -0.271 OA
ATOM      4  N   UNK A  10       5.104  23.813  37.682  0.00  0.00    -0.196 NA
BRANCH   2   5
ATOM      5  C   UNK A  10       6.904  25.355  38.393  0.00  0.00    +0.173 C 
BRANCH   5   7
ATOM      6  C   UNK A  10       7.863  24.796  36.185  0.00  0.00    +0.262 C 
ATOM      7  N   UNK A  10       7.056  25.575  36.951  0.00  0.00    -0.196 NA
ATOM      8  O   UNK A  10       8.548  23.878  36.661  0.00  0.00    -0.271 OA
BRANCH   6   9
ATOM      9  C   UNK A  10       7.807  25.000  34.635  0.00  0.00    +0.177 C 
BRANCH   9  12
ATOM     10  C   UNK A  10       5.463  25.781  34.232  0.00  0.00    +0.262 C 
ATOM     11  O   UNK A  10       4.956  24.741  34.644  0.00  0.00    -0.271 OA
ATOM     12  N   UNK A  10       6.808  25.997  34.221  0.00  0.00    -0.196 NA
BRANCH  10  13
ATOM     13  C   UNK A  10       4.557  26.937  33.726  0.00  0.00    +0.173 C 
ATOM     14  C   UNK A  10       4.365  26.780  32.220  0.00  0.00    +0.033 C 
BRANCH  13  17
ATOM     15  C   UNK A  10       5.598  28.590  35.294  0.00  0.00    +0.264 C 
ATOM     16  O   UNK A  10       5.339  27.908  36.291  0.00  0.00    -0.271 OA
ATOM     17  N   UNK A  10       5.209  28.232  34.036  0.00  0.00    -0.196 NA
BRANCH  15  18
ATOM     18  C   UNK A  10       6.382  29.920  35.454  0.00  0.00    +0.205 C 
BRANCH  18  20
ATOM     19  C   TYR A   9       7.820  29.705  33.467  0.00  0.00    +0.262 C 
ATOM     20  N   UNK A  10       6.874  30.381  34.154  0.00  0.00    -0.194 NA
ATOM     21  O   TYR A   9       8.320  28.644  33.875  0.00  0.00    -0.271 OA
BRANCH  19  22
ATOM     22  CA  TYR A   9       8.169  30.204  32.045  0.00  0.00    +0.177 C 
BRANCH  22  25
ATOM     23  C   PHE A   8       5.906  30.798  31.209  0.00  0.00    +0.262 C 
ATOM     24  O   PHE A   8       5.416  29.714  31.506  0.00  0.00    -0.271 OA
ATOM     25  N   TYR A   9       7.184  31.134  31.476  0.00  0.00    -0.196 NA
BRANCH  23  26
ATOM     26  CA  PHE A   8       5.058  31.853  30.485  0.00  0.00    +0.177 C 
BRANCH  26  29
ATOM     27  C   GLY A   7       5.132  33.386  32.440  0.00  0.00    +0.264 C 
ATOM     28  O   GLY A   7       4.948  32.470  33.254  0.00  0.00    -0.271 OA
ATOM     29  N   PHE A   8       5.211  33.180  31.094  0.00  0.00    -0.196 NA
BRANCH  27  30
ATOM     30  CA  GLY A   7       5.309  34.816  32.930  0.00  0.00    +0.201 C 
BRANCH  30  32
ATOM     31  C   VAL A   6       7.478  35.254  31.821  0.00  0.00    +0.262 C 
ATOM     32  N   GLY A   7       6.227  35.631  32.137  0.00  0.00    -0.194 NA
ATOM     33  O   VAL A   6       7.963  34.144  32.126  0.00  0.00    -0.271 OA
BRANCH  31  34
ATOM     34  CA  VAL A   6       8.282  36.249  30.960  0.00  0.00    +0.173 C 
BRANCH  34  36
ATOM     35  C   GLY A   5       7.373  38.377  30.112  0.00  0.00    +0.264 C 
ATOM     36  N   VAL A   6       7.805  37.629  31.147  0.00  0.00    -0.196 NA
ATOM     37  O   GLY A   5       7.338  37.945  28.956  0.00  0.00    -0.271 OA
BRANCH  35  38
ATOM     38  CA  GLY A   5       6.936  39.810  30.409  0.00  0.00    +0.201 C 
BRANCH  38  40
ATOM     39  C   PHE A   4       8.712  40.635  31.908  0.00  0.00    +0.262 C 
ATOM     40  N   GLY A   5       7.424  40.375  31.665  0.00  0.00    -0.194 NA
ATOM     41  O   PHE A   4       9.611  40.424  31.094  0.00  0.00    -0.271 OA
BRANCH  39  42
ATOM     42  CA  PHE A   4       9.048  41.242  33.280  0.00  0.00    +0.177 C 
BRANCH  42  44
ATOM     43  C   GLN A   3       7.243  42.407  34.497  0.00  0.00    +0.262 C 
ATOM     44  N   PHE A   4       7.906  41.276  34.191  0.00  0.00    -0.196 NA
ATOM     45  O   GLN A   3       7.531  43.502  34.015  0.00  0.00    -0.271 OA
BRANCH  43  46
ATOM     46  CA  GLN A   3       6.045  42.280  35.441  0.00  0.00    +0.173 C 
BRANCH  46  48
ATOM     47  C   GLY A   2       5.111  40.171  34.568  0.00  0.00    +0.264 C 
ATOM     48  N   GLN A   3       5.608  40.881  35.601  0.00  0.00    -0.196 NA
ATOM     49  O   GLY A   2       5.009  40.639  33.430  0.00  0.00    -0.271 OA
BRANCH  47  50
ATOM     50  CA  GLY A   2       4.752  38.719  34.832  0.00  0.00    +0.201 C 
BRANCH  50  52
ATOM     51  C   ILE A   1       6.927  37.896  35.687  0.00  0.00    +0.259 C 
ATOM     52  N   GLY A   2       5.606  38.056  35.822  0.00  0.00    -0.194 NA
ATOM     53  O   ILE A   1       7.590  38.357  34.752  0.00  0.00    -0.272 OA
BRANCH  51  55
ATOM     54  N   ILE A   1       7.300  37.640  38.187  0.00  0.00    -0.123 NA
ATOM     55  CA  ILE A   1       7.681  37.178  36.837  0.00  0.00    +0.169 C 
BRANCH  55  56
ATOM     56  CB  ILE A   1       7.618  35.613  36.724  0.00  0.00    +0.027 C 
ATOM     57  CG2 ILE A   1       6.213  35.031  36.952  0.00  0.00    +0.002 C 
BRANCH  56  58
ATOM     58  CG1 ILE A   1       8.261  35.110  35.407  0.00  0.00    +0.002 C 
ATOM     59  CD1 ILE A   1       8.632  33.604  35.421  0.00  0.00    +0.000 C 
ENDBRANCH  56  58
ENDBRANCH  55  56
ENDBRANCH  51  55
ENDBRANCH  50  52
ENDBRANCH  47  50
ENDBRANCH  46  48
BRANCH  46  60
ATOM     60  CB  GLN A   3       6.310  42.946  36.798  0.00  0.00    +0.041 C 
BRANCH  60  61
ATOM     61  CG  GLN A   3       5.009  43.312  37.513  0.00  0.00    +0.091 C 
BRANCH  61  62
ATOM     62  CD  GLN A   3       5.211  44.203  38.712  0.00  0.00    +0.261 C 
ATOM     63  OE1 GLN A   3       4.902  43.824  39.845  0.00  0.00    -0.272 OA
ATOM     64  NE2 GLN A   3       5.679  45.431  38.486  0.00  0.00    -0.088 NA
ENDBRANCH  61  62
ENDBRANCH  60  61
ENDBRANCH  46  60
ENDBRANCH  43  46
ENDBRANCH  42  44
BRANCH  42  65
ATOM     65  CB  PHE A   4      10.240  40.537  33.952  0.00  0.00    +0.057 C 
BRANCH  65  66
ATOM     66  CG  PHE A   4      10.716  41.245  35.196  0.00  0.00    -0.020 A 
ATOM     67  CD2 PHE A   4      10.100  41.020  36.424  0.00  0.00    -0.004 A 
ATOM     68  CE2 PHE A   4      10.535  41.683  37.578  0.00  0.00    -0.000 A 
ATOM     69  CZ  PHE A   4      11.574  42.583  37.504  0.00  0.00    -0.000 A 
ATOM     70  CE1 PHE A   4      12.185  42.837  36.288  0.00  0.00    -0.000 A 
ATOM     71  CD1 PHE A   4      11.757  42.170  35.136  0.00  0.00    -0.004 A 
ENDBRANCH  65  66
ENDBRANCH  42  65
ENDBRANCH  39  42
ENDBRANCH  38  40
ENDBRANCH  35  38
ENDBRANCH  34  36
BRANCH  34  72
ATOM     72  CB  VAL A   6       9.822  36.128  31.147  0.00  0.00    +0.029 C 
ATOM     73  CG2 VAL A   6      10.256  36.588  32.545  0.00  0.00    +0.002 C 
ATOM     74  CG1 VAL A   6      10.566  36.919  30.063  0.00  0.00    +0.002 C 
ENDBRANCH  34  72
ENDBRANCH  31  34
ENDBRANCH  30  32
ENDBRANCH  27  30
ENDBRANCH  26  29
BRANCH  26  75
ATOM     75  CB  PHE A   8       5.443  31.868  28.983  0.00  0.00    +0.057 C 
BRANCH  75  76
ATOM     76  CG  PHE A   8       5.576  30.472  28.395  0.00  0.00    -0.020 A 
ATOM     77  CD2 PHE A   8       6.833  29.909  28.163  0.00  0.00    -0.004 A 
ATOM     78  CE2 PHE A   8       6.956  28.606  27.658  0.00  0.00    -0.000 A 
ATOM     79  CZ  PHE A   8       5.829  27.847  27.421  0.00  0.00    -0.000 A 
ATOM     80  CE1 PHE A   8       4.571  28.389  27.644  0.00  0.00    -0.000 A 
ATOM     81  CD1 PHE A   8       4.443  29.695  28.135  0.00  0.00    -0.004 A 
ENDBRANCH  75  76
ENDBRANCH  26  75
ENDBRANCH  23  26
ENDBRANCH  22  25
BRANCH  22  82
ATOM     82  CB  TYR A   9       9.563  30.797  31.933  0.00  0.00    +0.057 C 
BRANCH  82  83
ATOM     83  CG  TYR A   9       9.909  30.990  30.468  0.00  0.00    -0.020 A 
ATOM     84  CD2 TYR A   9       9.751  32.233  29.851  0.00  0.00    -0.001 A 
ATOM     85  CE2 TYR A   9      10.007  32.405  28.490  0.00  0.00    +0.042 A 
ATOM     86  CZ  TYR A   9      10.361  31.311  27.711  0.00  0.00    +0.196 A 
ATOM     87  CE1 TYR A   9      10.477  30.057  28.293  0.00  0.00    +0.042 A 
ATOM     88  OH  TYR A   9      10.616  31.474  26.368  0.00  0.00    -0.287 OA
ATOM     89  CD1 TYR A   9      10.256  29.904  29.665  0.00  0.00    -0.001 A 
ENDBRANCH  82  83
ENDBRANCH  22  82
ENDBRANCH  19  22
ENDBRANCH  18  20
BRANCH  18  90
ATOM     90  C   UNK A  10       5.529  30.979  36.143  0.00  0.00    +0.213 C 
ATOM     91  O   UNK A  10       4.286  31.132  35.493  0.00  0.00    -0.218 OA
ENDBRANCH  18  90
ENDBRANCH  15  18
ENDBRANCH  13  17
ENDBRANCH  10  13
ENDBRANCH   9  12
BRANCH   9  92
ATOM     92  C   UNK A  10       9.169  25.303  33.997  0.00  0.00    +0.057 C 
BRANCH  92  93
ATOM     93  C   UNK A  10       9.089  24.989  32.513  0.00  0.00    -0.020 A 
ATOM     94  C   UNK A  10       9.235  23.677  32.048  0.00  0.00    -0.001 A 
ATOM     95  C   UNK A  10       9.074  23.363  30.696  0.00  0.00    +0.042 A 
ATOM     96  C   UNK A  10       8.678  24.346  29.802  0.00  0.00    +0.196 A 
ATOM     97  C   UNK A  10       8.495  25.652  30.243  0.00  0.00    +0.042 A 
ATOM     98  O   UNK A  10       8.516  24.035  28.474  0.00  0.00    -0.287 OA
ATOM     99  C   UNK A  10       8.689  25.964  31.594  0.00  0.00    -0.001 A 
ENDBRANCH  92  93
ENDBRANCH   9  92
ENDBRANCH   6   9
ENDBRANCH   5   7
BRANCH   5 100
ATOM    100  C   UNK A  10       6.138  26.510  39.096  0.00  0.00    +0.031 C 
BRANCH 100 101
ATOM    101  C   UNK A  10       6.856  27.882  39.197  0.00  0.00    +0.002 C 
ATOM    102  C   UNK A  10       8.059  27.804  40.152  0.00  0.00    +0.000 C 
ATOM    103  C   UNK A  10       5.897  28.978  39.645  0.00  0.00    +0.000 C 
ENDBRANCH 100 101
ENDBRANCH   5 100
ENDBRANCH   2   5
ENDBRANCH   1   4
BRANCH   1 104
ATOM    104  C   UNK A  10       2.726  23.180  37.947  0.00  0.00    +0.029 C 
ATOM    105  C   UNK A  10       2.566  24.086  39.161  0.00  0.00    +0.002 C 
ATOM    106  C   UNK A  10       2.247  23.883  36.670  0.00  0.00    +0.002 C 
ENDBRANCH   1 104
BRANCH   1 107
ATOM    107  C   UNK A  10       4.278  21.613  36.710  0.00  0.00    +0.262 C 
ATOM    108  O   UNK A  10       3.773  20.504  36.917  0.00  0.00    -0.271 OA
ATOM    109  N   UNK A  10       4.851  21.950  35.547  0.00  0.00    -0.196 NA
BRANCH 109 110
ATOM    110  C   UNK A  10       4.911  21.051  34.411  0.00  0.00    +0.173 C 
ATOM    111  C   UNK A  10       4.409  21.754  33.157  0.00  0.00    +0.033 C 
BRANCH 110 112
ATOM    112  C   UNK A  10       6.284  20.481  34.158  0.00  0.00    +0.262 C 
ATOM    113  O   UNK A  10       7.272  21.217  34.195  0.00  0.00    -0.271 OA
ATOM    114  N   UNK A  10       6.337  19.170  33.856  0.00  0.00    -0.192 NA
BRANCH 114 115
ATOM    115  C   UNK A  10       7.586  18.502  33.474  0.00  0.00    +0.195 C 
BRANCH 115 116
ATOM    116  C   UNK A  10       7.824  18.745  31.959  0.00  0.00    +0.266 C 
ATOM    117  O   UNK A  10       8.954  18.716  31.475  0.00  0.00    -0.271 OA
ATOM    118  N   UNK A  10       6.729  18.985  31.220  0.00  0.00    -0.196 NA
BRANCH 118 119
ATOM    119  C   UNK A  10       6.748  19.225  29.787  0.00  0.00    +0.173 C 
BRANCH 119 120
ATOM    120  C   UNK A  10       5.590  20.146  29.430  0.00  0.00    +0.262 C 
ATOM    121  O   UNK A  10       4.501  20.034  30.009  0.00  0.00    -0.271 OA
ATOM    122  N   UNK A  10       5.844  21.045  28.487  0.00  0.00    -0.196 NA
BRANCH 122 123
ATOM    123  C   UNK A  10       4.823  21.966  27.978  0.00  0.00    +0.173 C 
BRANCH 123 124
ATOM    124  C   UNK A  10       4.780  21.806  26.475  0.00  0.00    +0.262 C 
ATOM    125  N   UNK A  10       3.581  21.579  25.931  0.00  0.00    -0.194 NA
ATOM    126  O   UNK A  10       5.823  21.887  25.825  0.00  0.00    -0.271 OA
BRANCH 125 127
ATOM    127  C   UNK A  10       3.332  21.455  24.499  0.00  0.00    +0.203 C 
BRANCH 127 128
ATOM    128  C   UNK A  10       2.407  22.608  24.130  0.00  0.00    +0.264 C 
ATOM    129  O   UNK A  10       1.398  22.816  24.803  0.00  0.00    -0.271 OA
ATOM    130  N   UNK A  10       2.758  23.354  23.090  0.00  0.00    -0.196 NA
BRANCH 130 131
ATOM    131  C   UNK A  10       1.967  24.516  22.677  0.00  0.00    +0.173 C 
BRANCH 131 132
ATOM    132  C   UNK A  10       1.587  24.324  21.208  0.00  0.00    +0.262 C 
ATOM    133  N   UNK A  10       0.283  24.246  20.935  0.00  0.00    -0.196 NA
ATOM    134  O   UNK A  10       2.469  24.212  20.354  0.00  0.00    -0.271 OA
BRANCH 133 135
ATOM    135  C   UNK A  10      -0.236  24.102  19.575  0.00  0.00    +0.173 C 
BRANCH 135 136
ATOM    136  C   UNK A  10      -0.774  25.494  19.226  0.00  0.00    +0.262 C 
ATOM    137  O   UNK A  10      -1.549  26.061  20.003  0.00  0.00    -0.271 OA
ATOM    138  N   UNK A  10      -0.336  26.048  18.094  0.00  0.00    -0.194 NA
BRANCH 138 139
ATOM    139  C   UNK A  10      -0.720  27.407  17.727  0.00  0.00    +0.203 C 
BRANCH 139 140
ATOM    140  C   UNK A  10      -1.025  27.565  16.226  0.00  0.00    +0.264 C 
ATOM    141  N   UNK A  10      -1.948  28.485  15.937  0.00  0.00    -0.196 NA
ATOM    142  O   UNK A  10      -0.430  26.894  15.356  0.00  0.00    -0.271 OA
BRANCH 141 143
ATOM    143  C   UNK A  10      -2.356  28.792  14.574  0.00  0.00    +0.173 C 
BRANCH 143 144
ATOM    144  C   UNK A  10      -2.676  30.286  14.439  0.00  0.00    +0.262 C 
ATOM    145  O   UNK A  10      -3.599  30.774  15.088  0.00  0.00    -0.271 OA
ATOM    146  N   UNK A  10      -1.868  30.985  13.631  0.00  0.00    -0.196 NA
BRANCH 146 147
ATOM    147  C   UNK A  10      -2.007  32.406  13.291  0.00  0.00    +0.179 C 
BRANCH 147 148
ATOM    148  C   UNK A  10      -2.588  32.431  11.863  0.00  0.00    +0.262 C 
ATOM    149  N   UNK A  10      -3.435  33.435  11.546  0.00  0.00    -0.196 NA
ATOM    150  O   UNK A  10      -2.244  31.558  11.061  0.00  0.00    -0.271 OA
BRANCH 149 151
ATOM    151  C   UNK A  10      -4.027  33.603  10.205  0.00  0.00    +0.182 C 
BRANCH 151 152
ATOM    152  C   UNK A  10      -3.000  33.538   9.059  0.00  0.00    +0.262 C 
ATOM    153  N   UNK A  10      -1.824  34.154   9.255  0.00  0.00    -0.196 NA
ATOM    154  O   UNK A  10      -3.284  32.941   8.006  0.00  0.00    -0.271 OA
BRANCH 153 155
ATOM    155  C   UNK A  10      -0.784  34.242   8.225  0.00  0.00    +0.184 C 
BRANCH 155 156
ATOM    156  C   UNK A  10       0.150  33.023   8.120  0.00  0.00    +0.262 C 
ATOM    157  N   UNK A  10      -0.106  31.939   8.892  0.00  0.00    -0.203 NA
ATOM    158  O   UNK A  10       1.109  33.073   7.336  0.00  0.00    -0.271 OA
BRANCH 157 159
ATOM    159  C   UNK A  10       0.825  30.810   8.894  0.00  0.00    +0.127 C 
BRANCH 159 160
ATOM    160  C   UNK A  10       1.935  31.069   9.971  0.00  0.00    +0.137 C 
BRANCH 160 161
ATOM    161  C   UNK A  10       3.332  30.547   9.643  0.00  0.00    +0.367 C 
ATOM    162  O   UNK A  10       4.314  31.014  10.284  0.00  0.00    -0.246 OA
ATOM    163  O   UNK A  10       3.442  29.620   8.800  0.00  0.00    -0.246 OA
ENDBRANCH 160 161
ENDBRANCH 159 160
ENDBRANCH 157 159
ENDBRANCH 155 156
BRANCH 155 164
ATOM    164  C   UNK A  10       0.053  35.535   8.415  0.00  0.00    +0.145 C 
BRANCH 164 165
ATOM    165  C   UNK A  10      -0.729  36.839   8.316  0.00  0.00    +0.367 C 
ATOM    166  O   UNK A  10      -0.242  37.864   8.843  0.00  0.00    -0.246 OA
ATOM    167  O   UNK A  10      -1.809  36.840   7.676  0.00  0.00    -0.246 OA
ENDBRANCH 164 165
ENDBRANCH 155 164
ENDBRANCH 153 155
ENDBRANCH 151 152
BRANCH 151 168
ATOM    168  C   UNK A  10      -4.807  34.936  10.131  0.00  0.00    +0.120 C 
BRANCH 168 169
ATOM    169  C   UNK A  10      -6.137  34.887  10.840  0.00  0.00    +0.263 C 
ATOM    170  N   UNK A  10      -6.683  36.045  11.202  0.00  0.00    -0.088 NA
ATOM    171  O   UNK A  10      -6.710  33.816  11.048  0.00  0.00    -0.272 OA
ENDBRANCH 168 169
ENDBRANCH 151 168
ENDBRANCH 149 151
ENDBRANCH 147 148
BRANCH 147 172
ATOM    172  C   UNK A  10      -0.626  33.089  13.304  0.00  0.00    +0.079 C 
BRANCH 172 173
ATOM    173  C   UNK A  10      -0.646  34.556  12.964  0.00  0.00    +0.082 A 
ATOM    174  N   UNK A  10      -0.457  35.526  13.929  0.00  0.00    -0.227 NA
ATOM    175  C   UNK A  10      -0.510  36.691  13.291  0.00  0.00    +0.199 A 
ATOM    176  N   UNK A  10      -0.696  36.515  11.979  0.00  0.00    -0.221 NA
ATOM    177  C   UNK A  10      -0.755  35.163  11.759  0.00  0.00    +0.115 A 
ENDBRANCH 172 173
ENDBRANCH 147 172
ENDBRANCH 146 147
ENDBRANCH 143 144
BRANCH 143 178
ATOM    178  C   UNK A  10      -3.530  27.898  14.118  0.00  0.00    +0.031 C 
BRANCH 178 179
ATOM    179  C   UNK A  10      -4.115  28.288  12.750  0.00  0.00    +0.004 C 
BRANCH 179 180
ATOM    180  C   UNK A  10      -3.179  27.892  11.559  0.00  0.00    +0.021 C 
BRANCH 180 181
ATOM    181  C   UNK A  10      -3.870  28.116  10.218  0.00  0.00    +0.109 C 
ATOM    182  N   UNK A  10      -3.930  29.564   9.864  0.00  0.00    -0.131 NA
ENDBRANCH 180 181
ENDBRANCH 179 180
ENDBRANCH 178 179
ENDBRANCH 143 178
ENDBRANCH 141 143
ENDBRANCH 139 140
BRANCH 139 183
ATOM    183  C   UNK A  10       0.334  28.424  18.240  0.00  0.00    +0.181 C 
ATOM    184  O   UNK A  10      -0.175  29.758  18.103  0.00  0.00    -0.221 OA
ATOM    185  C   UNK A  10       1.676  28.314  17.491  0.00  0.00    +0.038 C 
ENDBRANCH 139 183
ENDBRANCH 138 139
ENDBRANCH 135 136
BRANCH 135 186
ATOM    186  C   UNK A  10      -1.347  23.019  19.452  0.00  0.00    +0.029 C 
ATOM    187  C   UNK A  10      -1.727  22.799  17.972  0.00  0.00    +0.002 C 
BRANCH 186 188
ATOM    188  C   UNK A  10      -0.978  21.686  20.174  0.00  0.00    +0.002 C 
ATOM    189  C   UNK A  10       0.291  20.974  19.692  0.00  0.00    +0.000 C 
ENDBRANCH 186 188
ENDBRANCH 135 186
ENDBRANCH 133 135
ENDBRANCH 131 132
BRANCH 131 190
ATOM    190  C   UNK A  10       2.738  25.849  22.898  0.00  0.00    +0.029 C 
ATOM    191  C   UNK A  10       3.139  26.042  24.360  0.00  0.00    +0.002 C 
ATOM    192  C   UNK A  10       1.949  27.053  22.357  0.00  0.00    +0.002 C 
ENDBRANCH 131 190
ENDBRANCH 130 131
ENDBRANCH 127 128
BRANCH 127 193
ATOM    193  C   UNK A  10       2.697  20.101  24.133  0.00  0.00    +0.181 C 
ATOM    194  O   UNK A  10       3.465  19.051  24.734  0.00  0.00    -0.221 OA
ATOM    195  C   UNK A  10       2.630  19.893  22.622  0.00  0.00    +0.038 C 
ENDBRANCH 127 193
ENDBRANCH 125 127
ENDBRANCH 123 124
BRANCH 123 196
ATOM    196  C   UNK A  10       5.083  23.442  28.402  0.00  0.00    +0.029 C 
ATOM    197  C   UNK A  10       5.118  23.574  29.934  0.00  0.00    +0.002 C 
ATOM    198  C   UNK A  10       4.020  24.375  27.812  0.00  0.00    +0.002 C 
ENDBRANCH 123 196
ENDBRANCH 122 123
ENDBRANCH 119 120
BRANCH 119 199
ATOM    199  C   UNK A  10       6.604  17.890  29.015  0.00  0.00    +0.031 C 
BRANCH 199 200
ATOM    200  C   UNK A  10       6.702  18.026  27.489  0.00  0.00    +0.004 C 
BRANCH 200 201
ATOM    201  C   UNK A  10       6.829  16.684  26.761  0.00  0.00    +0.021 C 
BRANCH 201 202
ATOM    202  C   UNK A  10       5.520  15.962  26.565  0.00  0.00    +0.109 C 
ATOM    203  N   UNK A  10       5.721  14.572  26.055  0.00  0.00    -0.131 NA
ENDBRANCH 201 202
ENDBRANCH 200 201
ENDBRANCH 199 200
ENDBRANCH 119 199
ENDBRANCH 118 119
ENDBRANCH 115 116
BRANCH 115 204
ATOM    204  C   UNK A  10       7.531  16.994  33.797  0.00  0.00    +0.011 C 
ATOM    205  C   UNK A  10       6.376  16.231  33.164  0.00  0.00    +0.084 C 
BRANCH 205 206
ATOM    206  C   UNK A  10       6.236  14.768  33.551  0.00  0.00    +0.388 C 
ATOM    207  O   UNK A  10       6.892  14.333  34.525  0.00  0.00    -0.241 OA
ATOM    208  O   UNK A  10       5.453  14.056  32.881  0.00  0.00    -0.241 OA
ENDBRANCH 205 206
ENDBRANCH 115 204
ENDBRANCH 114 115
ENDBRANCH 110 112
ENDBRANCH 109 110
ENDBRANCH   1 107
TORSDOF 94
REMARK  Name = /Users/mlugowska/PhD/ML_residence_time_prediction/protein_files/5NYH_protein.pdb
REMARK  779 active torsions:
REMARK  status: ('A' for Active; 'I' for Inactive)
REMARK    1  A    between atoms: _2  and  _3
REMARK    2  A    between atoms: _2  and  _5
REMARK    3  A    between atoms: _5  and  _6
REMARK    4  A    between atoms: _6  and  _7
REMARK    5  A    between atoms: _10  and  _11
REMARK    6  A    between atoms: _11  and  _12
REMARK    7  A    between atoms: _11  and  _14
REMARK    8  A    between atoms: _17  and  _18
REMARK    9  A    between atoms: _18  and  _19
REMARK   10  A    between atoms: _18  and  _21
REMARK   11  A    between atoms: _21  and  _22
REMARK   12  A    between atoms: _22  and  _23
REMARK   13  A    between atoms: _26  and  _27
REMARK   14  A    between atoms: _27  and  _28
REMARK   15  A    between atoms: _27  and  _30
REMARK   16  A    between atoms: _33  and  _34
REMARK   17  A    between atoms: _34  and  _35
REMARK   18  A    between atoms: _34  and  _37
REMARK   19  A    between atoms: _37  and  _38
REMARK   20  A    between atoms: _44  and  _45
REMARK   21  A    between atoms: _45  and  _46
REMARK   22  A    between atoms: _49  and  _50
REMARK   23  A    between atoms: _50  and  _51
REMARK   24  A    between atoms: _50  and  _53
REMARK   25  A    between atoms: _53  and  _54
REMARK   26  A    between atoms: _60  and  _61
REMARK   27  A    between atoms: _61  and  _62
REMARK   28  A    between atoms: _61  and  _64
REMARK   29  A    between atoms: _64  and  _65
REMARK   30  A    between atoms: _65  and  _66
REMARK   31  A    between atoms: _69  and  _70
REMARK   32  A    between atoms: _70  and  _71
REMARK   33  A    between atoms: _74  and  _75
REMARK   34  A    between atoms: _75  and  _76
REMARK   35  A    between atoms: _75  and  _78
REMARK   36  A    between atoms: _78  and  _79
REMARK   37  A    between atoms: _79  and  _80
REMARK   38  A    between atoms: _83  and  _84
REMARK   39  A    between atoms: _84  and  _85
REMARK   40  A    between atoms: _84  and  _87
REMARK   41  A    between atoms: _87  and  _88
REMARK   42  A    between atoms: _91  and  _92
REMARK   43  A    between atoms: _92  and  _93
REMARK   44  A    between atoms: _96  and  _97
REMARK   45  A    between atoms: _97  and  _98
REMARK   46  A    between atoms: _97  and  _100
REMARK   47  A    between atoms: _100  and  _101
REMARK   48  A    between atoms: _101  and  _102
REMARK   49  A    between atoms: _105  and  _106
REMARK   50  A    between atoms: _106  and  _107
REMARK   51  A    between atoms: _106  and  _109
REMARK   52  A    between atoms: _109  and  _110
REMARK   53  A    between atoms: _113  and  _114
REMARK   54  A    between atoms: _114  and  _115
REMARK   55  A    between atoms: _114  and  _117
REMARK   56  A    between atoms: _117  and  _118
REMARK   57  A    between atoms: _118  and  _119
REMARK   58  A    between atoms: _121  and  _122
REMARK   59  A    between atoms: _122  and  _123
REMARK   60  A    between atoms: _122  and  _125
REMARK   61  A    between atoms: _127  and  _128
REMARK   62  A    between atoms: _128  and  _129
REMARK   63  A    between atoms: _128  and  _131
REMARK   64  A    between atoms: _131  and  _132
REMARK   65  A    between atoms: _135  and  _136
REMARK   66  A    between atoms: _136  and  _137
REMARK   67  A    between atoms: _136  and  _139
REMARK   68  A    between atoms: _139  and  _140
REMARK   69  A    between atoms: _143  and  _144
REMARK   70  A    between atoms: _144  and  _145
REMARK   71  A    between atoms: _144  and  _147
REMARK   72  A    between atoms: _147  and  _148
REMARK   73  A    between atoms: _151  and  _152
REMARK   74  A    between atoms: _152  and  _153
REMARK   75  A    between atoms: _152  and  _155
REMARK   76  A    between atoms: _155  and  _156
REMARK   77  A    between atoms: _159  and  _160
REMARK   78  A    between atoms: _160  and  _161
REMARK   79  A    between atoms: _160  and  _163
REMARK   80  A    between atoms: _166  and  _167
REMARK   81  A    between atoms: _167  and  _168
REMARK   82  A    between atoms: _167  and  _170
REMARK   83  A    between atoms: _170  and  _171
REMARK   84  A    between atoms: _177  and  _178
REMARK   85  A    between atoms: _178  and  _179
REMARK   86  A    between atoms: _178  and  _181
REMARK   87  A    between atoms: _181  and  _182
REMARK   88  A    between atoms: _189  and  _190
REMARK   89  A    between atoms: _190  and  _191
REMARK   90  A    between atoms: _190  and  _193
REMARK   91  A    between atoms: _195  and  _196
REMARK   92  A    between atoms: _196  and  _197
REMARK   93  A    between atoms: _196  and  _199
REMARK   94  A    between atoms: _199  and  _200
REMARK   95  A    between atoms: _203  and  _204
REMARK   96  A    between atoms: _204  and  _205
REMARK   97  A    between atoms: _204  and  _207
REMARK   98  A    between atoms: _207  and  _208
REMARK   99  A    between atoms: _208  and  _209
REMARK  100  A    between atoms: _209  and  _210
REMARK  101  A    between atoms: _212  and  _213
REMARK  102  A    between atoms: _213  and  _214
REMARK  103  A    between atoms: _213  and  _216
REMARK  104  A    between atoms: _216  and  _217
REMARK  105  A    between atoms: _217  and  _218
REMARK  106  A    between atoms: _221  and  _222
REMARK  107  A    between atoms: _222  and  _223
REMARK  108  A    between atoms: _222  and  _225
REMARK  109  A    between atoms: _225  and  _226
REMARK  110  A    between atoms: _229  and  _230
REMARK  111  A    between atoms: _230  and  _231
REMARK  112  A    between atoms: _230  and  _233
REMARK  113  A    between atoms: _233  and  _234
REMARK  114  A    between atoms: _240  and  _241
REMARK  115  A    between atoms: _241  and  _242
REMARK  116  A    between atoms: _241  and  _244
REMARK  117  A    between atoms: _244  and  _245
REMARK  118  A    between atoms: _248  and  _249
REMARK  119  A    between atoms: _249  and  _250
REMARK  120  A    between atoms: _249  and  _252
REMARK  121  A    between atoms: _252  and  _253
REMARK  122  A    between atoms: _253  and  _254
REMARK  123  A    between atoms: _254  and  _255
REMARK  124  A    between atoms: _259  and  _260
REMARK  125  A    between atoms: _260  and  _261
REMARK  126  A    between atoms: _260  and  _263
REMARK  127  A    between atoms: _263  and  _264
REMARK  128  A    between atoms: _264  and  _265
REMARK  129  A    between atoms: _268  and  _269
REMARK  130  A    between atoms: _269  and  _270
REMARK  131  A    between atoms: _269  and  _272
REMARK  132  A    between atoms: _272  and  _273
REMARK  133  A    between atoms: _276  and  _277
REMARK  134  A    between atoms: _277  and  _278
REMARK  135  A    between atoms: _277  and  _280
REMARK  136  A    between atoms: _280  and  _281
REMARK  137  A    between atoms: _284  and  _285
REMARK  138  A    between atoms: _285  and  _286
REMARK  139  A    between atoms: _285  and  _288
REMARK  140  A    between atoms: _290  and  _291
REMARK  141  A    between atoms: _291  and  _292
REMARK  142  A    between atoms: _291  and  _294
REMARK  143  A    between atoms: _294  and  _295
REMARK  144  A    between atoms: _298  and  _299
REMARK  145  A    between atoms: _299  and  _300
REMARK  146  A    between atoms: _299  and  _302
REMARK  147  A    between atoms: _304  and  _305
REMARK  148  A    between atoms: _305  and  _306
REMARK  149  A    between atoms: _305  and  _308
REMARK  150  A    between atoms: _310  and  _311
REMARK  151  A    between atoms: _311  and  _312
REMARK  152  A    between atoms: _311  and  _314
REMARK  153  A    between atoms: _314  and  _315
REMARK  154  A    between atoms: _318  and  _319
REMARK  155  A    between atoms: _319  and  _320
REMARK  156  A    between atoms: _323  and  _324
REMARK  157  A    between atoms: _324  and  _325
REMARK  158  A    between atoms: _324  and  _327
REMARK  159  A    between atoms: _327  and  _328
REMARK  160  A    between atoms: _331  and  _332
REMARK  161  A    between atoms: _332  and  _333
REMARK  162  A    between atoms: _332  and  _335
REMARK  163  A    between atoms: _335  and  _336
REMARK  164  A    between atoms: _339  and  _340
REMARK  165  A    between atoms: _340  and  _341
REMARK  166  A    between atoms: _340  and  _343
REMARK  167  A    between atoms: _343  and  _344
REMARK  168  A    between atoms: _344  and  _345
REMARK  169  A    between atoms: _345  and  _346
REMARK  170  A    between atoms: _348  and  _349
REMARK  171  A    between atoms: _349  and  _350
REMARK  172  A    between atoms: _349  and  _352
REMARK  173  A    between atoms: _352  and  _353
REMARK  174  A    between atoms: _356  and  _357
REMARK  175  A    between atoms: _357  and  _358
REMARK  176  A    between atoms: _357  and  _360
REMARK  177  A    between atoms: _360  and  _361
REMARK  178  A    between atoms: _361  and  _362
REMARK  179  A    between atoms: _362  and  _363
REMARK  180  A    between atoms: _367  and  _368
REMARK  181  A    between atoms: _368  and  _369
REMARK  182  A    between atoms: _368  and  _371
REMARK  183  A    between atoms: _371  and  _372
REMARK  184  A    between atoms: _379  and  _380
REMARK  185  A    between atoms: _380  and  _381
REMARK  186  A    between atoms: _380  and  _383
REMARK  187  A    between atoms: _383  and  _384
REMARK  188  A    between atoms: _384  and  _385
REMARK  189  A    between atoms: _388  and  _389
REMARK  190  A    between atoms: _389  and  _390
REMARK  191  A    between atoms: _389  and  _392
REMARK  192  A    between atoms: _394  and  _395
REMARK  193  A    between atoms: _395  and  _396
REMARK  194  A    between atoms: _395  and  _398
REMARK  195  A    between atoms: _398  and  _399
REMARK  196  A    between atoms: _402  and  _403
REMARK  197  A    between atoms: _403  and  _404
REMARK  198  A    between atoms: _403  and  _406
REMARK  199  A    between atoms: _409  and  _410
REMARK  200  A    between atoms: _410  and  _411
REMARK  201  A    between atoms: _410  and  _413
REMARK  202  A    between atoms: _413  and  _414
REMARK  203  A    between atoms: _418  and  _419
REMARK  204  A    between atoms: _424  and  _425
REMARK  205  A    between atoms: _425  and  _426
REMARK  206  A    between atoms: _425  and  _428
REMARK  207  A    between atoms: _430  and  _431
REMARK  208  A    between atoms: _431  and  _432
REMARK  209  A    between atoms: _431  and  _434
REMARK  210  A    between atoms: _434  and  _435
REMARK  211  A    between atoms: _435  and  _436
REMARK  212  A    between atoms: _436  and  _437
REMARK  213  A    between atoms: _439  and  _440
REMARK  214  A    between atoms: _440  and  _441
REMARK  215  A    between atoms: _440  and  _443
REMARK  216  A    between atoms: _443  and  _444
REMARK  217  A    between atoms: _447  and  _448
REMARK  218  A    between atoms: _448  and  _449
REMARK  219  A    between atoms: _448  and  _451
REMARK  220  A    between atoms: _451  and  _452
REMARK  221  A    between atoms: _455  and  _456
REMARK  222  A    between atoms: _456  and  _457
REMARK  223  A    between atoms: _456  and  _459
REMARK  224  A    between atoms: _461  and  _462
REMARK  225  A    between atoms: _462  and  _463
REMARK  226  A    between atoms: _465  and  _466
REMARK  227  A    between atoms: _466  and  _467
REMARK  228  A    between atoms: _466  and  _469
REMARK  229  A    between atoms: _469  and  _470
REMARK  230  A    between atoms: _470  and  _471
REMARK  231  A    between atoms: _471  and  _472
REMARK  232  A    between atoms: _474  and  _475
REMARK  233  A    between atoms: _475  and  _476
REMARK  234  A    between atoms: _475  and  _478
REMARK  235  A    between atoms: _478  and  _479
REMARK  236  A    between atoms: _479  and  _480
REMARK  237  A    between atoms: _483  and  _484
REMARK  238  A    between atoms: _484  and  _485
REMARK  239  A    between atoms: _484  and  _487
REMARK  240  A    between atoms: _487  and  _488
REMARK  241  A    between atoms: _491  and  _492
REMARK  242  A    between atoms: _492  and  _493
REMARK  243  A    between atoms: _492  and  _495
REMARK  244  A    between atoms: _495  and  _496
REMARK  245  A    between atoms: _501  and  _502
REMARK  246  A    between atoms: _502  and  _503
REMARK  247  A    between atoms: _502  and  _505
REMARK  248  A    between atoms: _505  and  _506
REMARK  249  A    between atoms: _509  and  _510
REMARK  250  A    between atoms: _510  and  _511
REMARK  251  A    between atoms: _510  and  _513
REMARK  252  A    between atoms: _513  and  _514
REMARK  253  A    between atoms: _517  and  _518
REMARK  254  A    between atoms: _518  and  _519
REMARK  255  A    between atoms: _518  and  _521
REMARK  256  A    between atoms: _521  and  _522
REMARK  257  A    between atoms: _525  and  _526
REMARK  258  A    between atoms: _526  and  _527
REMARK  259  A    between atoms: _526  and  _529
REMARK  260  A    between atoms: _529  and  _530
REMARK  261  A    between atoms: _534  and  _535
REMARK  262  A    between atoms: _540  and  _541
REMARK  263  A    between atoms: _541  and  _542
REMARK  264  A    between atoms: _541  and  _544
REMARK  265  A    between atoms: _544  and  _545
REMARK  266  A    between atoms: _548  and  _549
REMARK  267  A    between atoms: _549  and  _552
REMARK  268  A    between atoms: _552  and  _553
REMARK  269  A    between atoms: _553  and  _554
REMARK  270  A    between atoms: _554  and  _555
REMARK  271  A    between atoms: _568  and  _569
REMARK  272  A    between atoms: _576  and  _577
REMARK  273  A    between atoms: _576  and  _579
REMARK  274  A    between atoms: _579  and  _580
REMARK  275  A    between atoms: _583  and  _584
REMARK  276  A    between atoms: _584  and  _585
REMARK  277  A    between atoms: _584  and  _587
REMARK  278  A    between atoms: _587  and  _588
REMARK  279  A    between atoms: _588  and  _589
REMARK  280  A    between atoms: _589  and  _590
REMARK  281  A    between atoms: _594  and  _595
REMARK  282  A    between atoms: _595  and  _596
REMARK  283  A    between atoms: _595  and  _598
REMARK  284  A    between atoms: _601  and  _602
REMARK  285  A    between atoms: _602  and  _603
REMARK  286  A    between atoms: _602  and  _605
REMARK  287  A    between atoms: _605  and  _606
REMARK  288  A    between atoms: _609  and  _610
REMARK  289  A    between atoms: _610  and  _611
REMARK  290  A    between atoms: _610  and  _613
REMARK  291  A    between atoms: _616  and  _617
REMARK  292  A    between atoms: _617  and  _618
REMARK  293  A    between atoms: _617  and  _620
REMARK  294  A    between atoms: _620  and  _621
REMARK  295  A    between atoms: _624  and  _625
REMARK  296  A    between atoms: _625  and  _626
REMARK  297  A    between atoms: _625  and  _628
REMARK  298  A    between atoms: _631  and  _632
REMARK  299  A    between atoms: _632  and  _633
REMARK  300  A    between atoms: _632  and  _635
REMARK  301  A    between atoms: _635  and  _636
REMARK  302  A    between atoms: _639  and  _640
REMARK  303  A    between atoms: _640  and  _641
REMARK  304  A    between atoms: _640  and  _643
REMARK  305  A    between atoms: _646  and  _647
REMARK  306  A    between atoms: _647  and  _648
REMARK  307  A    between atoms: _650  and  _651
REMARK  308  A    between atoms: _651  and  _652
REMARK  309  A    between atoms: _651  and  _654
REMARK  310  A    between atoms: _654  and  _655
REMARK  311  A    between atoms: _658  and  _659
REMARK  312  A    between atoms: _659  and  _660
REMARK  313  A    between atoms: _662  and  _663
REMARK  314  A    between atoms: _663  and  _664
REMARK  315  A    between atoms: _663  and  _666
REMARK  316  A    between atoms: _666  and  _667
REMARK  317  A    between atoms: _667  and  _668
REMARK  318  A    between atoms: _670  and  _671
REMARK  319  A    between atoms: _671  and  _672
REMARK  320  A    between atoms: _671  and  _674
REMARK  321  A    between atoms: _677  and  _678
REMARK  322  A    between atoms: _678  and  _679
REMARK  323  A    between atoms: _678  and  _681
REMARK  324  A    between atoms: _681  and  _682
REMARK  325  A    between atoms: _682  and  _683
REMARK  326  A    between atoms: _683  and  _684
REMARK  327  A    between atoms: _686  and  _687
REMARK  328  A    between atoms: _687  and  _688
REMARK  329  A    between atoms: _691  and  _692
REMARK  330  A    between atoms: _692  and  _693
REMARK  331  A    between atoms: _692  and  _695
REMARK  332  A    between atoms: _695  and  _696
REMARK  333  A    between atoms: _699  and  _700
REMARK  334  A    between atoms: _700  and  _701
REMARK  335  A    between atoms: _700  and  _703
REMARK  336  A    between atoms: _703  and  _704
REMARK  337  A    between atoms: _707  and  _708
REMARK  338  A    between atoms: _708  and  _709
REMARK  339  A    between atoms: _708  and  _711
REMARK  340  A    between atoms: _711  and  _712
REMARK  341  A    between atoms: _715  and  _716
REMARK  342  A    between atoms: _716  and  _717
REMARK  343  A    between atoms: _716  and  _719
REMARK  344  A    between atoms: _719  and  _720
REMARK  345  A    between atoms: _723  and  _724
REMARK  346  A    between atoms: _724  and  _725
REMARK  347  A    between atoms: _724  and  _727
REMARK  348  A    between atoms: _727  and  _728
REMARK  349  A    between atoms: _731  and  _732
REMARK  350  A    between atoms: _732  and  _733
REMARK  351  A    between atoms: _732  and  _735
REMARK  352  A    between atoms: _735  and  _736
REMARK  353  A    between atoms: _739  and  _740
REMARK  354  A    between atoms: _740  and  _741
REMARK  355  A    between atoms: _743  and  _744
REMARK  356  A    between atoms: _744  and  _745
REMARK  357  A    between atoms: _744  and  _747
REMARK  358  A    between atoms: _750  and  _751
REMARK  359  A    between atoms: _751  and  _752
REMARK  360  A    between atoms: _751  and  _754
REMARK  361  A    between atoms: _754  and  _755
REMARK  362  A    between atoms: _758  and  _759
REMARK  363  A    between atoms: _759  and  _760
REMARK  364  A    between atoms: _763  and  _764
REMARK  365  A    between atoms: _764  and  _765
REMARK  366  A    between atoms: _764  and  _767
REMARK  367  A    between atoms: _767  and  _768
REMARK  368  A    between atoms: _768  and  _769
REMARK  369  A    between atoms: _769  and  _770
REMARK  370  A    between atoms: _772  and  _773
REMARK  371  A    between atoms: _773  and  _774
REMARK  372  A    between atoms: _773  and  _776
REMARK  373  A    between atoms: _778  and  _779
REMARK  374  A    between atoms: _779  and  _780
REMARK  375  A    between atoms: _782  and  _783
REMARK  376  A    between atoms: _783  and  _784
REMARK  377  A    between atoms: _783  and  _786
REMARK  378  A    between atoms: _789  and  _790
REMARK  379  A    between atoms: _790  and  _791
REMARK  380  A    between atoms: _790  and  _793
REMARK  381  A    between atoms: _793  and  _794
REMARK  382  A    between atoms: _794  and  _795
REMARK  383  A    between atoms: _795  and  _796
REMARK  384  A    between atoms: _798  and  _799
REMARK  385  A    between atoms: _799  and  _800
REMARK  386  A    between atoms: _803  and  _804
REMARK  387  A    between atoms: _804  and  _805
REMARK  388  A    between atoms: _804  and  _807
REMARK  389  A    between atoms: _807  and  _808
REMARK  390  A    between atoms: _814  and  _815
REMARK  391  A    between atoms: _815  and  _816
REMARK  392  A    between atoms: _815  and  _818
REMARK  393  A    between atoms: _818  and  _819
REMARK  394  A    between atoms: _819  and  _820
REMARK  395  A    between atoms: _822  and  _823
REMARK  396  A    between atoms: _823  and  _824
REMARK  397  A    between atoms: _823  and  _826
REMARK  398  A    between atoms: _826  and  _827
REMARK  399  A    between atoms: _827  and  _828
REMARK  400  A    between atoms: _831  and  _832
REMARK  401  A    between atoms: _832  and  _833
REMARK  402  A    between atoms: _836  and  _837
REMARK  403  A    between atoms: _837  and  _838
REMARK  404  A    between atoms: _837  and  _840
REMARK  405  A    between atoms: _840  and  _841
REMARK  406  A    between atoms: _844  and  _845
REMARK  407  A    between atoms: _845  and  _846
REMARK  408  A    between atoms: _845  and  _848
REMARK  409  A    between atoms: _848  and  _849
REMARK  410  A    between atoms: _849  and  _850
REMARK  411  A    between atoms: _853  and  _854
REMARK  412  A    between atoms: _854  and  _855
REMARK  413  A    between atoms: _858  and  _859
REMARK  414  A    between atoms: _859  and  _860
REMARK  415  A    between atoms: _862  and  _863
REMARK  416  A    between atoms: _863  and  _864
REMARK  417  A    between atoms: _867  and  _868
REMARK  418  A    between atoms: _868  and  _869
REMARK  419  A    between atoms: _868  and  _871
REMARK  420  A    between atoms: _871  and  _872
REMARK  421  A    between atoms: _875  and  _876
REMARK  422  A    between atoms: _876  and  _877
REMARK  423  A    between atoms: _876  and  _879
REMARK  424  A    between atoms: _879  and  _880
REMARK  425  A    between atoms: _883  and  _884
REMARK  426  A    between atoms: _884  and  _887
REMARK  427  A    between atoms: _906  and  _907
REMARK  428  A    between atoms: _906  and  _909
REMARK  429  A    between atoms: _909  and  _910
REMARK  430  A    between atoms: _913  and  _914
REMARK  431  A    between atoms: _914  and  _915
REMARK  432  A    between atoms: _917  and  _918
REMARK  433  A    between atoms: _918  and  _919
REMARK  434  A    between atoms: _918  and  _921
REMARK  435  A    between atoms: _921  and  _922
REMARK  436  A    between atoms: _922  and  _923
REMARK  437  A    between atoms: _926  and  _927
REMARK  438  A    between atoms: _927  and  _928
REMARK  439  A    between atoms: _927  and  _930
REMARK  440  A    between atoms: _930  and  _931
REMARK  441  A    between atoms: _937  and  _938
REMARK  442  A    between atoms: _938  and  _939
REMARK  443  A    between atoms: _941  and  _942
REMARK  444  A    between atoms: _942  and  _943
REMARK  445  A    between atoms: _942  and  _945
REMARK  446  A    between atoms: _948  and  _949
REMARK  447  A    between atoms: _949  and  _950
REMARK  448  A    between atoms: _952  and  _953
REMARK  449  A    between atoms: _953  and  _954
REMARK  450  A    between atoms: _953  and  _956
REMARK  451  A    between atoms: _956  and  _957
REMARK  452  A    between atoms: _963  and  _964
REMARK  453  A    between atoms: _964  and  _965
REMARK  454  A    between atoms: _964  and  _967
REMARK  455  A    between atoms: _967  and  _968
REMARK  456  A    between atoms: _975  and  _976
REMARK  457  A    between atoms: _976  and  _977
REMARK  458  A    between atoms: _976  and  _979
REMARK  459  A    between atoms: _981  and  _982
REMARK  460  A    between atoms: _982  and  _983
REMARK  461  A    between atoms: _986  and  _987
REMARK  462  A    between atoms: _987  and  _988
REMARK  463  A    between atoms: _987  and  _990
REMARK  464  A    between atoms: _990  and  _991
REMARK  465  A    between atoms: _998  and  _999
REMARK  466  A    between atoms: _999  and  _1000
REMARK  467  A    between atoms: _999  and  _1002
REMARK  468  A    between atoms: _1002  and  _1003
REMARK  469  A    between atoms: _1006  and  _1007
REMARK  470  A    between atoms: _1007  and  _1008
REMARK  471  A    between atoms: _1007  and  _1010
REMARK  472  A    between atoms: _1013  and  _1014
REMARK  473  A    between atoms: _1014  and  _1015
REMARK  474  A    between atoms: _1018  and  _1019
REMARK  475  A    between atoms: _1019  and  _1020
REMARK  476  A    between atoms: _1019  and  _1022
REMARK  477  A    between atoms: _1023  and  _1024
REMARK  478  A    between atoms: _1027  and  _1028
REMARK  479  A    between atoms: _1028  and  _1029
REMARK  480  A    between atoms: _1028  and  _1031
REMARK  481  A    between atoms: _1031  and  _1032
REMARK  482  A    between atoms: _1032  and  _1033
REMARK  483  A    between atoms: _1033  and  _1034
REMARK  484  A    between atoms: _1036  and  _1037
REMARK  485  A    between atoms: _1037  and  _1038
REMARK  486  A    between atoms: _1037  and  _1040
REMARK  487  A    between atoms: _1043  and  _1044
REMARK  488  A    between atoms: _1044  and  _1045
REMARK  489  A    between atoms: _1044  and  _1047
REMARK  490  A    between atoms: _1050  and  _1051
REMARK  491  A    between atoms: _1051  and  _1052
REMARK  492  A    between atoms: _1051  and  _1054
REMARK  493  A    between atoms: _1057  and  _1058
REMARK  494  A    between atoms: _1058  and  _1059
REMARK  495  A    between atoms: _1058  and  _1061
REMARK  496  A    between atoms: _1061  and  _1062
REMARK  497  A    between atoms: _1065  and  _1066
REMARK  498  A    between atoms: _1066  and  _1067
REMARK  499  A    between atoms: _1066  and  _1069
REMARK  500  A    between atoms: _1072  and  _1073
REMARK  501  A    between atoms: _1073  and  _1074
REMARK  502  A    between atoms: _1073  and  _1076
REMARK  503  A    between atoms: _1076  and  _1077
REMARK  504  A    between atoms: _1077  and  _1078
REMARK  505  A    between atoms: _1078  and  _1079
REMARK  506  A    between atoms: _1081  and  _1082
REMARK  507  A    between atoms: _1082  and  _1083
REMARK  508  A    between atoms: _1082  and  _1085
REMARK  509  A    between atoms: _1085  and  _1086
REMARK  510  A    between atoms: _1091  and  _1092
REMARK  511  A    between atoms: _1092  and  _1093
REMARK  512  A    between atoms: _1092  and  _1095
REMARK  513  A    between atoms: _1095  and  _1096
REMARK  514  A    between atoms: _1099  and  _1100
REMARK  515  A    between atoms: _1100  and  _1101
REMARK  516  A    between atoms: _1100  and  _1103
REMARK  517  A    between atoms: _1103  and  _1104
REMARK  518  A    between atoms: _1107  and  _1108
REMARK  519  A    between atoms: _1108  and  _1111
REMARK  520  A    between atoms: _1111  and  _1112
REMARK  521  A    between atoms: _1125  and  _1127
REMARK  522  A    between atoms: _1134  and  _1135
REMARK  523  A    between atoms: _1134  and  _1137
REMARK  524  A    between atoms: _1137  and  _1138
REMARK  525  A    between atoms: _1138  and  _1139
REMARK  526  A    between atoms: _1142  and  _1143
REMARK  527  A    between atoms: _1143  and  _1144
REMARK  528  A    between atoms: _1143  and  _1146
REMARK  529  A    between atoms: _1146  and  _1147
REMARK  530  A    between atoms: _1154  and  _1155
REMARK  531  A    between atoms: _1155  and  _1156
REMARK  532  A    between atoms: _1159  and  _1160
REMARK  533  A    between atoms: _1160  and  _1161
REMARK  534  A    between atoms: _1160  and  _1163
REMARK  535  A    between atoms: _1163  and  _1164
REMARK  536  A    between atoms: _1173  and  _1174
REMARK  537  A    between atoms: _1174  and  _1175
REMARK  538  A    between atoms: _1174  and  _1177
REMARK  539  A    between atoms: _1177  and  _1178
REMARK  540  A    between atoms: _1178  and  _1179
REMARK  541  A    between atoms: _1182  and  _1183
REMARK  542  A    between atoms: _1183  and  _1184
REMARK  543  A    between atoms: _1183  and  _1186
REMARK  544  A    between atoms: _1188  and  _1189
REMARK  545  A    between atoms: _1189  and  _1190
REMARK  546  A    between atoms: _1189  and  _1192
REMARK  547  A    between atoms: _1194  and  _1195
REMARK  548  A    between atoms: _1195  and  _1196
REMARK  549  A    between atoms: _1199  and  _1200
REMARK  550  A    between atoms: _1200  and  _1201
REMARK  551  A    between atoms: _1203  and  _1204
REMARK  552  A    between atoms: _1204  and  _1205
REMARK  553  A    between atoms: _1207  and  _1208
REMARK  554  A    between atoms: _1208  and  _1209
REMARK  555  A    between atoms: _1208  and  _1211
REMARK  556  A    between atoms: _1213  and  _1214
REMARK  557  A    between atoms: _1214  and  _1215
REMARK  558  A    between atoms: _1214  and  _1217
REMARK  559  A    between atoms: _1217  and  _1218
REMARK  560  A    between atoms: _1224  and  _1225
REMARK  561  A    between atoms: _1225  and  _1226
REMARK  562  A    between atoms: _1225  and  _1228
REMARK  563  A    between atoms: _1231  and  _1232
REMARK  564  A    between atoms: _1232  and  _1233
REMARK  565  A    between atoms: _1232  and  _1235
REMARK  566  A    between atoms: _1238  and  _1239
REMARK  567  A    between atoms: _1239  and  _1240
REMARK  568  A    between atoms: _1239  and  _1242
REMARK  569  A    between atoms: _1242  and  _1243
REMARK  570  A    between atoms: _1243  and  _1244
REMARK  571  A    between atoms: _1244  and  _1245
REMARK  572  A    between atoms: _1249  and  _1250
REMARK  573  A    between atoms: _1250  and  _1251
REMARK  574  A    between atoms: _1250  and  _1253
REMARK  575  A    between atoms: _1256  and  _1257
REMARK  576  A    between atoms: _1257  and  _1258
REMARK  577  A    between atoms: _1257  and  _1260
REMARK  578  A    between atoms: _1260  and  _1261
REMARK  579  A    between atoms: _1264  and  _1265
REMARK  580  A    between atoms: _1265  and  _1266
REMARK  581  A    between atoms: _1265  and  _1268
REMARK  582  A    between atoms: _1271  and  _1272
REMARK  583  A    between atoms: _1272  and  _1273
REMARK  584  A    between atoms: _1275  and  _1276
REMARK  585  A    between atoms: _1276  and  _1277
REMARK  586  A    between atoms: _1276  and  _1279
REMARK  587  A    between atoms: _1279  and  _1280
REMARK  588  A    between atoms: _1280  and  _1281
REMARK  589  A    between atoms: _1285  and  _1286
REMARK  590  A    between atoms: _1291  and  _1293
REMARK  591  A    between atoms: _1298  and  _1299
REMARK  592  A    between atoms: _1299  and  _1301
REMARK  593  A    between atoms: _1300  and  _1301
REMARK  594  A    between atoms: _1304  and  _1305
REMARK  595  A    between atoms: _1305  and  _1306
REMARK  596  A    between atoms: _1308  and  _1309
REMARK  597  A    between atoms: _1309  and  _1310
REMARK  598  A    between atoms: _1309  and  _1312
REMARK  599  A    between atoms: _1312  and  _1313
REMARK  600  A    between atoms: _1313  and  _1314
REMARK  601  A    between atoms: _1314  and  _1315
REMARK  602  A    between atoms: _1319  and  _1320
REMARK  603  A    between atoms: _1320  and  _1321
REMARK  604  A    between atoms: _1323  and  _1324
REMARK  605  A    between atoms: _1324  and  _1325
REMARK  606  A    between atoms: _1324  and  _1327
REMARK  607  A    between atoms: _1330  and  _1331
REMARK  608  A    between atoms: _1331  and  _1332
REMARK  609  A    between atoms: _1331  and  _1334
REMARK  610  A    between atoms: _1334  and  _1335
REMARK  611  A    between atoms: _1335  and  _1336
REMARK  612  A    between atoms: _1336  and  _1337
REMARK  613  A    between atoms: _1339  and  _1340
REMARK  614  A    between atoms: _1340  and  _1341
REMARK  615  A    between atoms: _1340  and  _1343
REMARK  616  A    between atoms: _1346  and  _1347
REMARK  617  A    between atoms: _1347  and  _1348
REMARK  618  A    between atoms: _1347  and  _1350
REMARK  619  A    between atoms: _1350  and  _1351
REMARK  620  A    between atoms: _1354  and  _1355
REMARK  621  A    between atoms: _1355  and  _1356
REMARK  622  A    between atoms: _1355  and  _1358
REMARK  623  A    between atoms: _1358  and  _1359
REMARK  624  A    between atoms: _1362  and  _1363
REMARK  625  A    between atoms: _1363  and  _1364
REMARK  626  A    between atoms: _1363  and  _1366
REMARK  627  A    between atoms: _1366  and  _1367
REMARK  628  A    between atoms: _1372  and  _1373
REMARK  629  A    between atoms: _1373  and  _1374
REMARK  630  A    between atoms: _1373  and  _1376
REMARK  631  A    between atoms: _1376  and  _1377
REMARK  632  A    between atoms: _1380  and  _1381
REMARK  633  A    between atoms: _1381  and  _1382
REMARK  634  A    between atoms: _1381  and  _1384
REMARK  635  A    between atoms: _1384  and  _1385
REMARK  636  A    between atoms: _1385  and  _1386
REMARK  637  A    between atoms: _1386  and  _1387
REMARK  638  A    between atoms: _1389  and  _1390
REMARK  639  A    between atoms: _1390  and  _1391
REMARK  640  A    between atoms: _1390  and  _1393
REMARK  641  A    between atoms: _1393  and  _1394
REMARK  642  A    between atoms: _1394  and  _1395
REMARK  643  A    between atoms: _1398  and  _1399
REMARK  644  A    between atoms: _1399  and  _1400
REMARK  645  A    between atoms: _1399  and  _1402
REMARK  646  A    between atoms: _1402  and  _1403
REMARK  647  A    between atoms: _1406  and  _1407
REMARK  648  A    between atoms: _1407  and  _1408
REMARK  649  A    between atoms: _1407  and  _1410
REMARK  650  A    between atoms: _1410  and  _1411
REMARK  651  A    between atoms: _1411  and  _1412
REMARK  652  A    between atoms: _1415  and  _1416
REMARK  653  A    between atoms: _1416  and  _1417
REMARK  654  A    between atoms: _1416  and  _1419
REMARK  655  A    between atoms: _1422  and  _1423
REMARK  656  A    between atoms: _1423  and  _1424
REMARK  657  A    between atoms: _1423  and  _1426
REMARK  658  A    between atoms: _1426  and  _1427
REMARK  659  A    between atoms: _1427  and  _1428
REMARK  660  A    between atoms: _1431  and  _1432
REMARK  661  A    between atoms: _1432  and  _1433
REMARK  662  A    between atoms: _1432  and  _1435
REMARK  663  A    between atoms: _1435  and  _1436
REMARK  664  A    between atoms: _1443  and  _1444
REMARK  665  A    between atoms: _1444  and  _1445
REMARK  666  A    between atoms: _1444  and  _1447
REMARK  667  A    between atoms: _1447  and  _1448
REMARK  668  A    between atoms: _1451  and  _1452
REMARK  669  A    between atoms: _1452  and  _1453
REMARK  670  A    between atoms: _1452  and  _1455
REMARK  671  A    between atoms: _1455  and  _1456
REMARK  672  A    between atoms: _1456  and  _1457
REMARK  673  A    between atoms: _1460  and  _1461
REMARK  674  A    between atoms: _1461  and  _1462
REMARK  675  A    between atoms: _1461  and  _1464
REMARK  676  A    between atoms: _1464  and  _1465
REMARK  677  A    between atoms: _1465  and  _1466
REMARK  678  A    between atoms: _1469  and  _1470
REMARK  679  A    between atoms: _1470  and  _1471
REMARK  680  A    between atoms: _1470  and  _1473
REMARK  681  A    between atoms: _1473  and  _1474
REMARK  682  A    between atoms: _1474  and  _1475
REMARK  683  A    between atoms: _1475  and  _1476
REMARK  684  A    between atoms: _1480  and  _1481
REMARK  685  A    between atoms: _1481  and  _1482
REMARK  686  A    between atoms: _1481  and  _1484
REMARK  687  A    between atoms: _1484  and  _1485
REMARK  688  A    between atoms: _1485  and  _1486
REMARK  689  A    between atoms: _1486  and  _1487
REMARK  690  A    between atoms: _1491  and  _1492
REMARK  691  A    between atoms: _1492  and  _1493
REMARK  692  A    between atoms: _1492  and  _1495
REMARK  693  A    between atoms: _1495  and  _1496
REMARK  694  A    between atoms: _1499  and  _1500
REMARK  695  A    between atoms: _1500  and  _1501
REMARK  696  A    between atoms: _1500  and  _1503
REMARK  697  A    between atoms: _1503  and  _1504
REMARK  698  A    between atoms: _1504  and  _1505
REMARK  699  A    between atoms: _1505  and  _1506
REMARK  700  A    between atoms: _1508  and  _1509
REMARK  701  A    between atoms: _1509  and  _1510
REMARK  702  A    between atoms: _1509  and  _1512
REMARK  703  A    between atoms: _1512  and  _1513
REMARK  704  A    between atoms: _1513  and  _1514
REMARK  705  A    between atoms: _1517  and  _1518
REMARK  706  A    between atoms: _1518  and  _1519
REMARK  707  A    between atoms: _1518  and  _1521
REMARK  708  A    between atoms: _1521  and  _1522
REMARK  709  A    between atoms: _1525  and  _1526
REMARK  710  A    between atoms: _1526  and  _1527
REMARK  711  A    between atoms: _1526  and  _1529
REMARK  712  A    between atoms: _1532  and  _1533
REMARK  713  A    between atoms: _1533  and  _1534
REMARK  714  A    between atoms: _1533  and  _1536
REMARK  715  A    between atoms: _1536  and  _1537
REMARK  716  A    between atoms: _1537  and  _1538
REMARK  717  A    between atoms: _1538  and  _1539
REMARK  718  A    between atoms: _1541  and  _1542
REMARK  719  A    between atoms: _1542  and  _1543
REMARK  720  A    between atoms: _1542  and  _1545
REMARK  721  A    between atoms: _1545  and  _1546
REMARK  722  A    between atoms: _1546  and  _1547
REMARK  723  A    between atoms: _1547  and  _1548
REMARK  724  A    between atoms: _1550  and  _1551
REMARK  725  A    between atoms: _1551  and  _1552
REMARK  726  A    between atoms: _1551  and  _1554
REMARK  727  A    between atoms: _1554  and  _1555
REMARK  728  A    between atoms: _1560  and  _1561
REMARK  729  A    between atoms: _1561  and  _1562
REMARK  730  A    between atoms: _1561  and  _1564
REMARK  731  A    between atoms: _1566  and  _1567
REMARK  732  A    between atoms: _1567  and  _1568
REMARK  733  A    between atoms: _1567  and  _1570
REMARK  734  A    between atoms: _1570  and  _1571
REMARK  735  A    between atoms: _1571  and  _1572
REMARK  736  A    between atoms: _1575  and  _1576
REMARK  737  A    between atoms: _1576  and  _1577
REMARK  738  A    between atoms: _1576  and  _1579
REMARK  739  A    between atoms: _1579  and  _1580
REMARK  740  A    between atoms: _1586  and  _1587
REMARK  741  A    between atoms: _1587  and  _1588
REMARK  742  A    between atoms: _1587  and  _1590
REMARK  743  A    between atoms: _1590  and  _1591
REMARK  744  A    between atoms: _1594  and  _1595
REMARK  745  A    between atoms: _1595  and  _1596
REMARK  746  A    between atoms: _1598  and  _1599
REMARK  747  A    between atoms: _1599  and  _1600
REMARK  748  A    between atoms: _1599  and  _1602
REMARK  749  A    between atoms: _1602  and  _1603
REMARK  750  A    between atoms: _1611  and  _1612
REMARK  751  A    between atoms: _1617  and  _1618
REMARK  752  A    between atoms: _1618  and  _1619
REMARK  753  A    between atoms: _1618  and  _1621
REMARK  754  A    between atoms: _1621  and  _1622
REMARK  755  A    between atoms: _1625  and  _1626
REMARK  756  A    between atoms: _1626  and  _1627
REMARK  757  A    between atoms: _1626  and  _1629
REMARK  758  A    between atoms: _1632  and  _1633
REMARK  759  A    between atoms: _1633  and  _1634
REMARK  760  A    between atoms: _1633  and  _1636
REMARK  761  A    between atoms: _1636  and  _1637
REMARK  762  A    between atoms: _1640  and  _1641
REMARK  763  A    between atoms: _1641  and  _1642
REMARK  764  A    between atoms: _1641  and  _1644
REMARK  765  A    between atoms: _1644  and  _1645
REMARK  766  A    between atoms: _1651  and  _1652
REMARK  767  A    between atoms: _1652  and  _1653
REMARK  768  A    between atoms: _1652  and  _1655
REMARK  769  A    between atoms: _1658  and  _1659
REMARK  770  A    between atoms: _1659  and  _1660
REMARK  771  A    between atoms: _1659  and  _1662
REMARK  772  A    between atoms: _1662  and  _1663
REMARK  773  A    between atoms: _1663  and  _1664
REMARK  774  A    between atoms: _1667  and  _1668
REMARK  775  A    between atoms: _1668  and  _1669
REMARK  776  A    between atoms: _1668  and  _1671
REMARK  777  A    between atoms: _1671  and  _1672
REMARK  778  A    between atoms: _1672  and  _1673
REMARK  779  A    between atoms: _1673  and  _1674
REMARK                            x       y       z     vdW  Elec       q    Type
REMARK                         _______ _______ _______ _____ _____    ______ ____
ROOT
ATOM      1  C   UNL     1       0.139  29.440   9.076  0.00  0.00    +0.341 C 
ATOM      2  O   UNL     1      -1.094  29.357   9.193  0.00  0.00    -0.262 OA
ATOM      3  N   UNL     1       0.943  28.370   9.081  0.00  0.00    -0.080 NA
ENDROOT
TORSDOF 0
REMARK  Name = /Users/mlugowska/PhD/ML_residence_time_prediction/protein_files/5NYH_protein.pdb
REMARK  779 active torsions:
REMARK  status: ('A' for Active; 'I' for Inactive)
REMARK    1  A    between atoms: _2  and  _3
REMARK    2  A    between atoms: _2  and  _5
REMARK    3  A    between atoms: _5  and  _6
REMARK    4  A    between atoms: _6  and  _7
REMARK    5  A    between atoms: _10  and  _11
REMARK    6  A    between atoms: _11  and  _12
REMARK    7  A    between atoms: _11  and  _14
REMARK    8  A    between atoms: _17  and  _18
REMARK    9  A    between atoms: _18  and  _19
REMARK   10  A    between atoms: _18  and  _21
REMARK   11  A    between atoms: _21  and  _22
REMARK   12  A    between atoms: _22  and  _23
REMARK   13  A    between atoms: _26  and  _27
REMARK   14  A    between atoms: _27  and  _28
REMARK   15  A    between atoms: _27  and  _30
REMARK   16  A    between atoms: _33  and  _34
REMARK   17  A    between atoms: _34  and  _35
REMARK   18  A    between atoms: _34  and  _37
REMARK   19  A    between atoms: _37  and  _38
REMARK   20  A    between atoms: _44  and  _45
REMARK   21  A    between atoms: _45  and  _46
REMARK   22  A    between atoms: _49  and  _50
REMARK   23  A    between atoms: _50  and  _51
REMARK   24  A    between atoms: _50  and  _53
REMARK   25  A    between atoms: _53  and  _54
REMARK   26  A    between atoms: _60  and  _61
REMARK   27  A    between atoms: _61  and  _62
REMARK   28  A    between atoms: _61  and  _64
REMARK   29  A    between atoms: _64  and  _65
REMARK   30  A    between atoms: _65  and  _66
REMARK   31  A    between atoms: _69  and  _70
REMARK   32  A    between atoms: _70  and  _71
REMARK   33  A    between atoms: _74  and  _75
REMARK   34  A    between atoms: _75  and  _76
REMARK   35  A    between atoms: _75  and  _78
REMARK   36  A    between atoms: _78  and  _79
REMARK   37  A    between atoms: _79  and  _80
REMARK   38  A    between atoms: _83  and  _84
REMARK   39  A    between atoms: _84  and  _85
REMARK   40  A    between atoms: _84  and  _87
REMARK   41  A    between atoms: _87  and  _88
REMARK   42  A    between atoms: _91  and  _92
REMARK   43  A    between atoms: _92  and  _93
REMARK   44  A    between atoms: _96  and  _97
REMARK   45  A    between atoms: _97  and  _98
REMARK   46  A    between atoms: _97  and  _100
REMARK   47  A    between atoms: _100  and  _101
REMARK   48  A    between atoms: _101  and  _102
REMARK   49  A    between atoms: _105  and  _106
REMARK   50  A    between atoms: _106  and  _107
REMARK   51  A    between atoms: _106  and  _109
REMARK   52  A    between atoms: _109  and  _110
REMARK   53  A    between atoms: _113  and  _114
REMARK   54  A    between atoms: _114  and  _115
REMARK   55  A    between atoms: _114  and  _117
REMARK   56  A    between atoms: _117  and  _118
REMARK   57  A    between atoms: _118  and  _119
REMARK   58  A    between atoms: _121  and  _122
REMARK   59  A    between atoms: _122  and  _123
REMARK   60  A    between atoms: _122  and  _125
REMARK   61  A    between atoms: _127  and  _128
REMARK   62  A    between atoms: _128  and  _129
REMARK   63  A    between atoms: _128  and  _131
REMARK   64  A    between atoms: _131  and  _132
REMARK   65  A    between atoms: _135  and  _136
REMARK   66  A    between atoms: _136  and  _137
REMARK   67  A    between atoms: _136  and  _139
REMARK   68  A    between atoms: _139  and  _140
REMARK   69  A    between atoms: _143  and  _144
REMARK   70  A    between atoms: _144  and  _145
REMARK   71  A    between atoms: _144  and  _147
REMARK   72  A    between atoms: _147  and  _148
REMARK   73  A    between atoms: _151  and  _152
REMARK   74  A    between atoms: _152  and  _153
REMARK   75  A    between atoms: _152  and  _155
REMARK   76  A    between atoms: _155  and  _156
REMARK   77  A    between atoms: _159  and  _160
REMARK   78  A    between atoms: _160  and  _161
REMARK   79  A    between atoms: _160  and  _163
REMARK   80  A    between atoms: _166  and  _167
REMARK   81  A    between atoms: _167  and  _168
REMARK   82  A    between atoms: _167  and  _170
REMARK   83  A    between atoms: _170  and  _171
REMARK   84  A    between atoms: _177  and  _178
REMARK   85  A    between atoms: _178  and  _179
REMARK   86  A    between atoms: _178  and  _181
REMARK   87  A    between atoms: _181  and  _182
REMARK   88  A    between atoms: _189  and  _190
REMARK   89  A    between atoms: _190  and  _191
REMARK   90  A    between atoms: _190  and  _193
REMARK   91  A    between atoms: _195  and  _196
REMARK   92  A    between atoms: _196  and  _197
REMARK   93  A    between atoms: _196  and  _199
REMARK   94  A    between atoms: _199  and  _200
REMARK   95  A    between atoms: _203  and  _204
REMARK   96  A    between atoms: _204  and  _205
REMARK   97  A    between atoms: _204  and  _207
REMARK   98  A    between atoms: _207  and  _208
REMARK   99  A    between atoms: _208  and  _209
REMARK  100  A    between atoms: _209  and  _210
REMARK  101  A    between atoms: _212  and  _213
REMARK  102  A    between atoms: _213  and  _214
REMARK  103  A    between atoms: _213  and  _216
REMARK  104  A    between atoms: _216  and  _217
REMARK  105  A    between atoms: _217  and  _218
REMARK  106  A    between atoms: _221  and  _222
REMARK  107  A    between atoms: _222  and  _223
REMARK  108  A    between atoms: _222  and  _225
REMARK  109  A    between atoms: _225  and  _226
REMARK  110  A    between atoms: _229  and  _230
REMARK  111  A    between atoms: _230  and  _231
REMARK  112  A    between atoms: _230  and  _233
REMARK  113  A    between atoms: _233  and  _234
REMARK  114  A    between atoms: _240  and  _241
REMARK  115  A    between atoms: _241  and  _242
REMARK  116  A    between atoms: _241  and  _244
REMARK  117  A    between atoms: _244  and  _245
REMARK  118  A    between atoms: _248  and  _249
REMARK  119  A    between atoms: _249  and  _250
REMARK  120  A    between atoms: _249  and  _252
REMARK  121  A    between atoms: _252  and  _253
REMARK  122  A    between atoms: _253  and  _254
REMARK  123  A    between atoms: _254  and  _255
REMARK  124  A    between atoms: _259  and  _260
REMARK  125  A    between atoms: _260  and  _261
REMARK  126  A    between atoms: _260  and  _263
REMARK  127  A    between atoms: _263  and  _264
REMARK  128  A    between atoms: _264  and  _265
REMARK  129  A    between atoms: _268  and  _269
REMARK  130  A    between atoms: _269  and  _270
REMARK  131  A    between atoms: _269  and  _272
REMARK  132  A    between atoms: _272  and  _273
REMARK  133  A    between atoms: _276  and  _277
REMARK  134  A    between atoms: _277  and  _278
REMARK  135  A    between atoms: _277  and  _280
REMARK  136  A    between atoms: _280  and  _281
REMARK  137  A    between atoms: _284  and  _285
REMARK  138  A    between atoms: _285  and  _286
REMARK  139  A    between atoms: _285  and  _288
REMARK  140  A    between atoms: _290  and  _291
REMARK  141  A    between atoms: _291  and  _292
REMARK  142  A    between atoms: _291  and  _294
REMARK  143  A    between atoms: _294  and  _295
REMARK  144  A    between atoms: _298  and  _299
REMARK  145  A    between atoms: _299  and  _300
REMARK  146  A    between atoms: _299  and  _302
REMARK  147  A    between atoms: _304  and  _305
REMARK  148  A    between atoms: _305  and  _306
REMARK  149  A    between atoms: _305  and  _308
REMARK  150  A    between atoms: _310  and  _311
REMARK  151  A    between atoms: _311  and  _312
REMARK  152  A    between atoms: _311  and  _314
REMARK  153  A    between atoms: _314  and  _315
REMARK  154  A    between atoms: _318  and  _319
REMARK  155  A    between atoms: _319  and  _320
REMARK  156  A    between atoms: _323  and  _324
REMARK  157  A    between atoms: _324  and  _325
REMARK  158  A    between atoms: _324  and  _327
REMARK  159  A    between atoms: _327  and  _328
REMARK  160  A    between atoms: _331  and  _332
REMARK  161  A    between atoms: _332  and  _333
REMARK  162  A    between atoms: _332  and  _335
REMARK  163  A    between atoms: _335  and  _336
REMARK  164  A    between atoms: _339  and  _340
REMARK  165  A    between atoms: _340  and  _341
REMARK  166  A    between atoms: _340  and  _343
REMARK  167  A    between atoms: _343  and  _344
REMARK  168  A    between atoms: _344  and  _345
REMARK  169  A    between atoms: _345  and  _346
REMARK  170  A    between atoms: _348  and  _349
REMARK  171  A    between atoms: _349  and  _350
REMARK  172  A    between atoms: _349  and  _352
REMARK  173  A    between atoms: _352  and  _353
REMARK  174  A    between atoms: _356  and  _357
REMARK  175  A    between atoms: _357  and  _358
REMARK  176  A    between atoms: _357  and  _360
REMARK  177  A    between atoms: _360  and  _361
REMARK  178  A    between atoms: _361  and  _362
REMARK  179  A    between atoms: _362  and  _363
REMARK  180  A    between atoms: _367  and  _368
REMARK  181  A    between atoms: _368  and  _369
REMARK  182  A    between atoms: _368  and  _371
REMARK  183  A    between atoms: _371  and  _372
REMARK  184  A    between atoms: _379  and  _380
REMARK  185  A    between atoms: _380  and  _381
REMARK  186  A    between atoms: _380  and  _383
REMARK  187  A    between atoms: _383  and  _384
REMARK  188  A    between atoms: _384  and  _385
REMARK  189  A    between atoms: _388  and  _389
REMARK  190  A    between atoms: _389  and  _390
REMARK  191  A    between atoms: _389  and  _392
REMARK  192  A    between atoms: _394  and  _395
REMARK  193  A    between atoms: _395  and  _396
REMARK  194  A    between atoms: _395  and  _398
REMARK  195  A    between atoms: _398  and  _399
REMARK  196  A    between atoms: _402  and  _403
REMARK  197  A    between atoms: _403  and  _404
REMARK  198  A    between atoms: _403  and  _406
REMARK  199  A    between atoms: _409  and  _410
REMARK  200  A    between atoms: _410  and  _411
REMARK  201  A    between atoms: _410  and  _413
REMARK  202  A    between atoms: _413  and  _414
REMARK  203  A    between atoms: _418  and  _419
REMARK  204  A    between atoms: _424  and  _425
REMARK  205  A    between atoms: _425  and  _426
REMARK  206  A    between atoms: _425  and  _428
REMARK  207  A    between atoms: _430  and  _431
REMARK  208  A    between atoms: _431  and  _432
REMARK  209  A    between atoms: _431  and  _434
REMARK  210  A    between atoms: _434  and  _435
REMARK  211  A    between atoms: _435  and  _436
REMARK  212  A    between atoms: _436  and  _437
REMARK  213  A    between atoms: _439  and  _440
REMARK  214  A    between atoms: _440  and  _441
REMARK  215  A    between atoms: _440  and  _443
REMARK  216  A    between atoms: _443  and  _444
REMARK  217  A    between atoms: _447  and  _448
REMARK  218  A    between atoms: _448  and  _449
REMARK  219  A    between atoms: _448  and  _451
REMARK  220  A    between atoms: _451  and  _452
REMARK  221  A    between atoms: _455  and  _456
REMARK  222  A    between atoms: _456  and  _457
REMARK  223  A    between atoms: _456  and  _459
REMARK  224  A    between atoms: _461  and  _462
REMARK  225  A    between atoms: _462  and  _463
REMARK  226  A    between atoms: _465  and  _466
REMARK  227  A    between atoms: _466  and  _467
REMARK  228  A    between atoms: _466  and  _469
REMARK  229  A    between atoms: _469  and  _470
REMARK  230  A    between atoms: _470  and  _471
REMARK  231  A    between atoms: _471  and  _472
REMARK  232  A    between atoms: _474  and  _475
REMARK  233  A    between atoms: _475  and  _476
REMARK  234  A    between atoms: _475  and  _478
REMARK  235  A    between atoms: _478  and  _479
REMARK  236  A    between atoms: _479  and  _480
REMARK  237  A    between atoms: _483  and  _484
REMARK  238  A    between atoms: _484  and  _485
REMARK  239  A    between atoms: _484  and  _487
REMARK  240  A    between atoms: _487  and  _488
REMARK  241  A    between atoms: _491  and  _492
REMARK  242  A    between atoms: _492  and  _493
REMARK  243  A    between atoms: _492  and  _495
REMARK  244  A    between atoms: _495  and  _496
REMARK  245  A    between atoms: _501  and  _502
REMARK  246  A    between atoms: _502  and  _503
REMARK  247  A    between atoms: _502  and  _505
REMARK  248  A    between atoms: _505  and  _506
REMARK  249  A    between atoms: _509  and  _510
REMARK  250  A    between atoms: _510  and  _511
REMARK  251  A    between atoms: _510  and  _513
REMARK  252  A    between atoms: _513  and  _514
REMARK  253  A    between atoms: _517  and  _518
REMARK  254  A    between atoms: _518  and  _519
REMARK  255  A    between atoms: _518  and  _521
REMARK  256  A    between atoms: _521  and  _522
REMARK  257  A    between atoms: _525  and  _526
REMARK  258  A    between atoms: _526  and  _527
REMARK  259  A    between atoms: _526  and  _529
REMARK  260  A    between atoms: _529  and  _530
REMARK  261  A    between atoms: _534  and  _535
REMARK  262  A    between atoms: _540  and  _541
REMARK  263  A    between atoms: _541  and  _542
REMARK  264  A    between atoms: _541  and  _544
REMARK  265  A    between atoms: _544  and  _545
REMARK  266  A    between atoms: _548  and  _549
REMARK  267  A    between atoms: _549  and  _552
REMARK  268  A    between atoms: _552  and  _553
REMARK  269  A    between atoms: _553  and  _554
REMARK  270  A    between atoms: _554  and  _555
REMARK  271  A    between atoms: _568  and  _569
REMARK  272  A    between atoms: _576  and  _577
REMARK  273  A    between atoms: _576  and  _579
REMARK  274  A    between atoms: _579  and  _580
REMARK  275  A    between atoms: _583  and  _584
REMARK  276  A    between atoms: _584  and  _585
REMARK  277  A    between atoms: _584  and  _587
REMARK  278  A    between atoms: _587  and  _588
REMARK  279  A    between atoms: _588  and  _589
REMARK  280  A    between atoms: _589  and  _590
REMARK  281  A    between atoms: _594  and  _595
REMARK  282  A    between atoms: _595  and  _596
REMARK  283  A    between atoms: _595  and  _598
REMARK  284  A    between atoms: _601  and  _602
REMARK  285  A    between atoms: _602  and  _603
REMARK  286  A    between atoms: _602  and  _605
REMARK  287  A    between atoms: _605  and  _606
REMARK  288  A    between atoms: _609  and  _610
REMARK  289  A    between atoms: _610  and  _611
REMARK  290  A    between atoms: _610  and  _613
REMARK  291  A    between atoms: _616  and  _617
REMARK  292  A    between atoms: _617  and  _618
REMARK  293  A    between atoms: _617  and  _620
REMARK  294  A    between atoms: _620  and  _621
REMARK  295  A    between atoms: _624  and  _625
REMARK  296  A    between atoms: _625  and  _626
REMARK  297  A    between atoms: _625  and  _628
REMARK  298  A    between atoms: _631  and  _632
REMARK  299  A    between atoms: _632  and  _633
REMARK  300  A    between atoms: _632  and  _635
REMARK  301  A    between atoms: _635  and  _636
REMARK  302  A    between atoms: _639  and  _640
REMARK  303  A    between atoms: _640  and  _641
REMARK  304  A    between atoms: _640  and  _643
REMARK  305  A    between atoms: _646  and  _647
REMARK  306  A    between atoms: _647  and  _648
REMARK  307  A    between atoms: _650  and  _651
REMARK  308  A    between atoms: _651  and  _652
REMARK  309  A    between atoms: _651  and  _654
REMARK  310  A    between atoms: _654  and  _655
REMARK  311  A    between atoms: _658  and  _659
REMARK  312  A    between atoms: _659  and  _660
REMARK  313  A    between atoms: _662  and  _663
REMARK  314  A    between atoms: _663  and  _664
REMARK  315  A    between atoms: _663  and  _666
REMARK  316  A    between atoms: _666  and  _667
REMARK  317  A    between atoms: _667  and  _668
REMARK  318  A    between atoms: _670  and  _671
REMARK  319  A    between atoms: _671  and  _672
REMARK  320  A    between atoms: _671  and  _674
REMARK  321  A    between atoms: _677  and  _678
REMARK  322  A    between atoms: _678  and  _679
REMARK  323  A    between atoms: _678  and  _681
REMARK  324  A    between atoms: _681  and  _682
REMARK  325  A    between atoms: _682  and  _683
REMARK  326  A    between atoms: _683  and  _684
REMARK  327  A    between atoms: _686  and  _687
REMARK  328  A    between atoms: _687  and  _688
REMARK  329  A    between atoms: _691  and  _692
REMARK  330  A    between atoms: _692  and  _693
REMARK  331  A    between atoms: _692  and  _695
REMARK  332  A    between atoms: _695  and  _696
REMARK  333  A    between atoms: _699  and  _700
REMARK  334  A    between atoms: _700  and  _701
REMARK  335  A    between atoms: _700  and  _703
REMARK  336  A    between atoms: _703  and  _704
REMARK  337  A    between atoms: _707  and  _708
REMARK  338  A    between atoms: _708  and  _709
REMARK  339  A    between atoms: _708  and  _711
REMARK  340  A    between atoms: _711  and  _712
REMARK  341  A    between atoms: _715  and  _716
REMARK  342  A    between atoms: _716  and  _717
REMARK  343  A    between atoms: _716  and  _719
REMARK  344  A    between atoms: _719  and  _720
REMARK  345  A    between atoms: _723  and  _724
REMARK  346  A    between atoms: _724  and  _725
REMARK  347  A    between atoms: _724  and  _727
REMARK  348  A    between atoms: _727  and  _728
REMARK  349  A    between atoms: _731  and  _732
REMARK  350  A    between atoms: _732  and  _733
REMARK  351  A    between atoms: _732  and  _735
REMARK  352  A    between atoms: _735  and  _736
REMARK  353  A    between atoms: _739  and  _740
REMARK  354  A    between atoms: _740  and  _741
REMARK  355  A    between atoms: _743  and  _744
REMARK  356  A    between atoms: _744  and  _745
REMARK  357  A    between atoms: _744  and  _747
REMARK  358  A    between atoms: _750  and  _751
REMARK  359  A    between atoms: _751  and  _752
REMARK  360  A    between atoms: _751  and  _754
REMARK  361  A    between atoms: _754  and  _755
REMARK  362  A    between atoms: _758  and  _759
REMARK  363  A    between atoms: _759  and  _760
REMARK  364  A    between atoms: _763  and  _764
REMARK  365  A    between atoms: _764  and  _765
REMARK  366  A    between atoms: _764  and  _767
REMARK  367  A    between atoms: _767  and  _768
REMARK  368  A    between atoms: _768  and  _769
REMARK  369  A    between atoms: _769  and  _770
REMARK  370  A    between atoms: _772  and  _773
REMARK  371  A    between atoms: _773  and  _774
REMARK  372  A    between atoms: _773  and  _776
REMARK  373  A    between atoms: _778  and  _779
REMARK  374  A    between atoms: _779  and  _780
REMARK  375  A    between atoms: _782  and  _783
REMARK  376  A    between atoms: _783  and  _784
REMARK  377  A    between atoms: _783  and  _786
REMARK  378  A    between atoms: _789  and  _790
REMARK  379  A    between atoms: _790  and  _791
REMARK  380  A    between atoms: _790  and  _793
REMARK  381  A    between atoms: _793  and  _794
REMARK  382  A    between atoms: _794  and  _795
REMARK  383  A    between atoms: _795  and  _796
REMARK  384  A    between atoms: _798  and  _799
REMARK  385  A    between atoms: _799  and  _800
REMARK  386  A    between atoms: _803  and  _804
REMARK  387  A    between atoms: _804  and  _805
REMARK  388  A    between atoms: _804  and  _807
REMARK  389  A    between atoms: _807  and  _808
REMARK  390  A    between atoms: _814  and  _815
REMARK  391  A    between atoms: _815  and  _816
REMARK  392  A    between atoms: _815  and  _818
REMARK  393  A    between atoms: _818  and  _819
REMARK  394  A    between atoms: _819  and  _820
REMARK  395  A    between atoms: _822  and  _823
REMARK  396  A    between atoms: _823  and  _824
REMARK  397  A    between atoms: _823  and  _826
REMARK  398  A    between atoms: _826  and  _827
REMARK  399  A    between atoms: _827  and  _828
REMARK  400  A    between atoms: _831  and  _832
REMARK  401  A    between atoms: _832  and  _833
REMARK  402  A    between atoms: _836  and  _837
REMARK  403  A    between atoms: _837  and  _838
REMARK  404  A    between atoms: _837  and  _840
REMARK  405  A    between atoms: _840  and  _841
REMARK  406  A    between atoms: _844  and  _845
REMARK  407  A    between atoms: _845  and  _846
REMARK  408  A    between atoms: _845  and  _848
REMARK  409  A    between atoms: _848  and  _849
REMARK  410  A    between atoms: _849  and  _850
REMARK  411  A    between atoms: _853  and  _854
REMARK  412  A    between atoms: _854  and  _855
REMARK  413  A    between atoms: _858  and  _859
REMARK  414  A    between atoms: _859  and  _860
REMARK  415  A    between atoms: _862  and  _863
REMARK  416  A    between atoms: _863  and  _864
REMARK  417  A    between atoms: _867  and  _868
REMARK  418  A    between atoms: _868  and  _869
REMARK  419  A    between atoms: _868  and  _871
REMARK  420  A    between atoms: _871  and  _872
REMARK  421  A    between atoms: _875  and  _876
REMARK  422  A    between atoms: _876  and  _877
REMARK  423  A    between atoms: _876  and  _879
REMARK  424  A    between atoms: _879  and  _880
REMARK  425  A    between atoms: _883  and  _884
REMARK  426  A    between atoms: _884  and  _887
REMARK  427  A    between atoms: _906  and  _907
REMARK  428  A    between atoms: _906  and  _909
REMARK  429  A    between atoms: _909  and  _910
REMARK  430  A    between atoms: _913  and  _914
REMARK  431  A    between atoms: _914  and  _915
REMARK  432  A    between atoms: _917  and  _918
REMARK  433  A    between atoms: _918  and  _919
REMARK  434  A    between atoms: _918  and  _921
REMARK  435  A    between atoms: _921  and  _922
REMARK  436  A    between atoms: _922  and  _923
REMARK  437  A    between atoms: _926  and  _927
REMARK  438  A    between atoms: _927  and  _928
REMARK  439  A    between atoms: _927  and  _930
REMARK  440  A    between atoms: _930  and  _931
REMARK  441  A    between atoms: _937  and  _938
REMARK  442  A    between atoms: _938  and  _939
REMARK  443  A    between atoms: _941  and  _942
REMARK  444  A    between atoms: _942  and  _943
REMARK  445  A    between atoms: _942  and  _945
REMARK  446  A    between atoms: _948  and  _949
REMARK  447  A    between atoms: _949  and  _950
REMARK  448  A    between atoms: _952  and  _953
REMARK  449  A    between atoms: _953  and  _954
REMARK  450  A    between atoms: _953  and  _956
REMARK  451  A    between atoms: _956  and  _957
REMARK  452  A    between atoms: _963  and  _964
REMARK  453  A    between atoms: _964  and  _965
REMARK  454  A    between atoms: _964  and  _967
REMARK  455  A    between atoms: _967  and  _968
REMARK  456  A    between atoms: _975  and  _976
REMARK  457  A    between atoms: _976  and  _977
REMARK  458  A    between atoms: _976  and  _979
REMARK  459  A    between atoms: _981  and  _982
REMARK  460  A    between atoms: _982  and  _983
REMARK  461  A    between atoms: _986  and  _987
REMARK  462  A    between atoms: _987  and  _988
REMARK  463  A    between atoms: _987  and  _990
REMARK  464  A    between atoms: _990  and  _991
REMARK  465  A    between atoms: _998  and  _999
REMARK  466  A    between atoms: _999  and  _1000
REMARK  467  A    between atoms: _999  and  _1002
REMARK  468  A    between atoms: _1002  and  _1003
REMARK  469  A    between atoms: _1006  and  _1007
REMARK  470  A    between atoms: _1007  and  _1008
REMARK  471  A    between atoms: _1007  and  _1010
REMARK  472  A    between atoms: _1013  and  _1014
REMARK  473  A    between atoms: _1014  and  _1015
REMARK  474  A    between atoms: _1018  and  _1019
REMARK  475  A    between atoms: _1019  and  _1020
REMARK  476  A    between atoms: _1019  and  _1022
REMARK  477  A    between atoms: _1023  and  _1024
REMARK  478  A    between atoms: _1027  and  _1028
REMARK  479  A    between atoms: _1028  and  _1029
REMARK  480  A    between atoms: _1028  and  _1031
REMARK  481  A    between atoms: _1031  and  _1032
REMARK  482  A    between atoms: _1032  and  _1033
REMARK  483  A    between atoms: _1033  and  _1034
REMARK  484  A    between atoms: _1036  and  _1037
REMARK  485  A    between atoms: _1037  and  _1038
REMARK  486  A    between atoms: _1037  and  _1040
REMARK  487  A    between atoms: _1043  and  _1044
REMARK  488  A    between atoms: _1044  and  _1045
REMARK  489  A    between atoms: _1044  and  _1047
REMARK  490  A    between atoms: _1050  and  _1051
REMARK  491  A    between atoms: _1051  and  _1052
REMARK  492  A    between atoms: _1051  and  _1054
REMARK  493  A    between atoms: _1057  and  _1058
REMARK  494  A    between atoms: _1058  and  _1059
REMARK  495  A    between atoms: _1058  and  _1061
REMARK  496  A    between atoms: _1061  and  _1062
REMARK  497  A    between atoms: _1065  and  _1066
REMARK  498  A    between atoms: _1066  and  _1067
REMARK  499  A    between atoms: _1066  and  _1069
REMARK  500  A    between atoms: _1072  and  _1073
REMARK  501  A    between atoms: _1073  and  _1074
REMARK  502  A    between atoms: _1073  and  _1076
REMARK  503  A    between atoms: _1076  and  _1077
REMARK  504  A    between atoms: _1077  and  _1078
REMARK  505  A    between atoms: _1078  and  _1079
REMARK  506  A    between atoms: _1081  and  _1082
REMARK  507  A    between atoms: _1082  and  _1083
REMARK  508  A    between atoms: _1082  and  _1085
REMARK  509  A    between atoms: _1085  and  _1086
REMARK  510  A    between atoms: _1091  and  _1092
REMARK  511  A    between atoms: _1092  and  _1093
REMARK  512  A    between atoms: _1092  and  _1095
REMARK  513  A    between atoms: _1095  and  _1096
REMARK  514  A    between atoms: _1099  and  _1100
REMARK  515  A    between atoms: _1100  and  _1101
REMARK  516  A    between atoms: _1100  and  _1103
REMARK  517  A    between atoms: _1103  and  _1104
REMARK  518  A    between atoms: _1107  and  _1108
REMARK  519  A    between atoms: _1108  and  _1111
REMARK  520  A    between atoms: _1111  and  _1112
REMARK  521  A    between atoms: _1125  and  _1127
REMARK  522  A    between atoms: _1134  and  _1135
REMARK  523  A    between atoms: _1134  and  _1137
REMARK  524  A    between atoms: _1137  and  _1138
REMARK  525  A    between atoms: _1138  and  _1139
REMARK  526  A    between atoms: _1142  and  _1143
REMARK  527  A    between atoms: _1143  and  _1144
REMARK  528  A    between atoms: _1143  and  _1146
REMARK  529  A    between atoms: _1146  and  _1147
REMARK  530  A    between atoms: _1154  and  _1155
REMARK  531  A    between atoms: _1155  and  _1156
REMARK  532  A    between atoms: _1159  and  _1160
REMARK  533  A    between atoms: _1160  and  _1161
REMARK  534  A    between atoms: _1160  and  _1163
REMARK  535  A    between atoms: _1163  and  _1164
REMARK  536  A    between atoms: _1173  and  _1174
REMARK  537  A    between atoms: _1174  and  _1175
REMARK  538  A    between atoms: _1174  and  _1177
REMARK  539  A    between atoms: _1177  and  _1178
REMARK  540  A    between atoms: _1178  and  _1179
REMARK  541  A    between atoms: _1182  and  _1183
REMARK  542  A    between atoms: _1183  and  _1184
REMARK  543  A    between atoms: _1183  and  _1186
REMARK  544  A    between atoms: _1188  and  _1189
REMARK  545  A    between atoms: _1189  and  _1190
REMARK  546  A    between atoms: _1189  and  _1192
REMARK  547  A    between atoms: _1194  and  _1195
REMARK  548  A    between atoms: _1195  and  _1196
REMARK  549  A    between atoms: _1199  and  _1200
REMARK  550  A    between atoms: _1200  and  _1201
REMARK  551  A    between atoms: _1203  and  _1204
REMARK  552  A    between atoms: _1204  and  _1205
REMARK  553  A    between atoms: _1207  and  _1208
REMARK  554  A    between atoms: _1208  and  _1209
REMARK  555  A    between atoms: _1208  and  _1211
REMARK  556  A    between atoms: _1213  and  _1214
REMARK  557  A    between atoms: _1214  and  _1215
REMARK  558  A    between atoms: _1214  and  _1217
REMARK  559  A    between atoms: _1217  and  _1218
REMARK  560  A    between atoms: _1224  and  _1225
REMARK  561  A    between atoms: _1225  and  _1226
REMARK  562  A    between atoms: _1225  and  _1228
REMARK  563  A    between atoms: _1231  and  _1232
REMARK  564  A    between atoms: _1232  and  _1233
REMARK  565  A    between atoms: _1232  and  _1235
REMARK  566  A    between atoms: _1238  and  _1239
REMARK  567  A    between atoms: _1239  and  _1240
REMARK  568  A    between atoms: _1239  and  _1242
REMARK  569  A    between atoms: _1242  and  _1243
REMARK  570  A    between atoms: _1243  and  _1244
REMARK  571  A    between atoms: _1244  and  _1245
REMARK  572  A    between atoms: _1249  and  _1250
REMARK  573  A    between atoms: _1250  and  _1251
REMARK  574  A    between atoms: _1250  and  _1253
REMARK  575  A    between atoms: _1256  and  _1257
REMARK  576  A    between atoms: _1257  and  _1258
REMARK  577  A    between atoms: _1257  and  _1260
REMARK  578  A    between atoms: _1260  and  _1261
REMARK  579  A    between atoms: _1264  and  _1265
REMARK  580  A    between atoms: _1265  and  _1266
REMARK  581  A    between atoms: _1265  and  _1268
REMARK  582  A    between atoms: _1271  and  _1272
REMARK  583  A    between atoms: _1272  and  _1273
REMARK  584  A    between atoms: _1275  and  _1276
REMARK  585  A    between atoms: _1276  and  _1277
REMARK  586  A    between atoms: _1276  and  _1279
REMARK  587  A    between atoms: _1279  and  _1280
REMARK  588  A    between atoms: _1280  and  _1281
REMARK  589  A    between atoms: _1285  and  _1286
REMARK  590  A    between atoms: _1291  and  _1293
REMARK  591  A    between atoms: _1298  and  _1299
REMARK  592  A    between atoms: _1299  and  _1301
REMARK  593  A    between atoms: _1300  and  _1301
REMARK  594  A    between atoms: _1304  and  _1305
REMARK  595  A    between atoms: _1305  and  _1306
REMARK  596  A    between atoms: _1308  and  _1309
REMARK  597  A    between atoms: _1309  and  _1310
REMARK  598  A    between atoms: _1309  and  _1312
REMARK  599  A    between atoms: _1312  and  _1313
REMARK  600  A    between atoms: _1313  and  _1314
REMARK  601  A    between atoms: _1314  and  _1315
REMARK  602  A    between atoms: _1319  and  _1320
REMARK  603  A    between atoms: _1320  and  _1321
REMARK  604  A    between atoms: _1323  and  _1324
REMARK  605  A    between atoms: _1324  and  _1325
REMARK  606  A    between atoms: _1324  and  _1327
REMARK  607  A    between atoms: _1330  and  _1331
REMARK  608  A    between atoms: _1331  and  _1332
REMARK  609  A    between atoms: _1331  and  _1334
REMARK  610  A    between atoms: _1334  and  _1335
REMARK  611  A    between atoms: _1335  and  _1336
REMARK  612  A    between atoms: _1336  and  _1337
REMARK  613  A    between atoms: _1339  and  _1340
REMARK  614  A    between atoms: _1340  and  _1341
REMARK  615  A    between atoms: _1340  and  _1343
REMARK  616  A    between atoms: _1346  and  _1347
REMARK  617  A    between atoms: _1347  and  _1348
REMARK  618  A    between atoms: _1347  and  _1350
REMARK  619  A    between atoms: _1350  and  _1351
REMARK  620  A    between atoms: _1354  and  _1355
REMARK  621  A    between atoms: _1355  and  _1356
REMARK  622  A    between atoms: _1355  and  _1358
REMARK  623  A    between atoms: _1358  and  _1359
REMARK  624  A    between atoms: _1362  and  _1363
REMARK  625  A    between atoms: _1363  and  _1364
REMARK  626  A    between atoms: _1363  and  _1366
REMARK  627  A    between atoms: _1366  and  _1367
REMARK  628  A    between atoms: _1372  and  _1373
REMARK  629  A    between atoms: _1373  and  _1374
REMARK  630  A    between atoms: _1373  and  _1376
REMARK  631  A    between atoms: _1376  and  _1377
REMARK  632  A    between atoms: _1380  and  _1381
REMARK  633  A    between atoms: _1381  and  _1382
REMARK  634  A    between atoms: _1381  and  _1384
REMARK  635  A    between atoms: _1384  and  _1385
REMARK  636  A    between atoms: _1385  and  _1386
REMARK  637  A    between atoms: _1386  and  _1387
REMARK  638  A    between atoms: _1389  and  _1390
REMARK  639  A    between atoms: _1390  and  _1391
REMARK  640  A    between atoms: _1390  and  _1393
REMARK  641  A    between atoms: _1393  and  _1394
REMARK  642  A    between atoms: _1394  and  _1395
REMARK  643  A    between atoms: _1398  and  _1399
REMARK  644  A    between atoms: _1399  and  _1400
REMARK  645  A    between atoms: _1399  and  _1402
REMARK  646  A    between atoms: _1402  and  _1403
REMARK  647  A    between atoms: _1406  and  _1407
REMARK  648  A    between atoms: _1407  and  _1408
REMARK  649  A    between atoms: _1407  and  _1410
REMARK  650  A    between atoms: _1410  and  _1411
REMARK  651  A    between atoms: _1411  and  _1412
REMARK  652  A    between atoms: _1415  and  _1416
REMARK  653  A    between atoms: _1416  and  _1417
REMARK  654  A    between atoms: _1416  and  _1419
REMARK  655  A    between atoms: _1422  and  _1423
REMARK  656  A    between atoms: _1423  and  _1424
REMARK  657  A    between atoms: _1423  and  _1426
REMARK  658  A    between atoms: _1426  and  _1427
REMARK  659  A    between atoms: _1427  and  _1428
REMARK  660  A    between atoms: _1431  and  _1432
REMARK  661  A    between atoms: _1432  and  _1433
REMARK  662  A    between atoms: _1432  and  _1435
REMARK  663  A    between atoms: _1435  and  _1436
REMARK  664  A    between atoms: _1443  and  _1444
REMARK  665  A    between atoms: _1444  and  _1445
REMARK  666  A    between atoms: _1444  and  _1447
REMARK  667  A    between atoms: _1447  and  _1448
REMARK  668  A    between atoms: _1451  and  _1452
REMARK  669  A    between atoms: _1452  and  _1453
REMARK  670  A    between atoms: _1452  and  _1455
REMARK  671  A    between atoms: _1455  and  _1456
REMARK  672  A    between atoms: _1456  and  _1457
REMARK  673  A    between atoms: _1460  and  _1461
REMARK  674  A    between atoms: _1461  and  _1462
REMARK  675  A    between atoms: _1461  and  _1464
REMARK  676  A    between atoms: _1464  and  _1465
REMARK  677  A    between atoms: _1465  and  _1466
REMARK  678  A    between atoms: _1469  and  _1470
REMARK  679  A    between atoms: _1470  and  _1471
REMARK  680  A    between atoms: _1470  and  _1473
REMARK  681  A    between atoms: _1473  and  _1474
REMARK  682  A    between atoms: _1474  and  _1475
REMARK  683  A    between atoms: _1475  and  _1476
REMARK  684  A    between atoms: _1480  and  _1481
REMARK  685  A    between atoms: _1481  and  _1482
REMARK  686  A    between atoms: _1481  and  _1484
REMARK  687  A    between atoms: _1484  and  _1485
REMARK  688  A    between atoms: _1485  and  _1486
REMARK  689  A    between atoms: _1486  and  _1487
REMARK  690  A    between atoms: _1491  and  _1492
REMARK  691  A    between atoms: _1492  and  _1493
REMARK  692  A    between atoms: _1492  and  _1495
REMARK  693  A    between atoms: _1495  and  _1496
REMARK  694  A    between atoms: _1499  and  _1500
REMARK  695  A    between atoms: _1500  and  _1501
REMARK  696  A    between atoms: _1500  and  _1503
REMARK  697  A    between atoms: _1503  and  _1504
REMARK  698  A    between atoms: _1504  and  _1505
REMARK  699  A    between atoms: _1505  and  _1506
REMARK  700  A    between atoms: _1508  and  _1509
REMARK  701  A    between atoms: _1509  and  _1510
REMARK  702  A    between atoms: _1509  and  _1512
REMARK  703  A    between atoms: _1512  and  _1513
REMARK  704  A    between atoms: _1513  and  _1514
REMARK  705  A    between atoms: _1517  and  _1518
REMARK  706  A    between atoms: _1518  and  _1519
REMARK  707  A    between atoms: _1518  and  _1521
REMARK  708  A    between atoms: _1521  and  _1522
REMARK  709  A    between atoms: _1525  and  _1526
REMARK  710  A    between atoms: _1526  and  _1527
REMARK  711  A    between atoms: _1526  and  _1529
REMARK  712  A    between atoms: _1532  and  _1533
REMARK  713  A    between atoms: _1533  and  _1534
REMARK  714  A    between atoms: _1533  and  _1536
REMARK  715  A    between atoms: _1536  and  _1537
REMARK  716  A    between atoms: _1537  and  _1538
REMARK  717  A    between atoms: _1538  and  _1539
REMARK  718  A    between atoms: _1541  and  _1542
REMARK  719  A    between atoms: _1542  and  _1543
REMARK  720  A    between atoms: _1542  and  _1545
REMARK  721  A    between atoms: _1545  and  _1546
REMARK  722  A    between atoms: _1546  and  _1547
REMARK  723  A    between atoms: _1547  and  _1548
REMARK  724  A    between atoms: _1550  and  _1551
REMARK  725  A    between atoms: _1551  and  _1552
REMARK  726  A    between atoms: _1551  and  _1554
REMARK  727  A    between atoms: _1554  and  _1555
REMARK  728  A    between atoms: _1560  and  _1561
REMARK  729  A    between atoms: _1561  and  _1562
REMARK  730  A    between atoms: _1561  and  _1564
REMARK  731  A    between atoms: _1566  and  _1567
REMARK  732  A    between atoms: _1567  and  _1568
REMARK  733  A    between atoms: _1567  and  _1570
REMARK  734  A    between atoms: _1570  and  _1571
REMARK  735  A    between atoms: _1571  and  _1572
REMARK  736  A    between atoms: _1575  and  _1576
REMARK  737  A    between atoms: _1576  and  _1577
REMARK  738  A    between atoms: _1576  and  _1579
REMARK  739  A    between atoms: _1579  and  _1580
REMARK  740  A    between atoms: _1586  and  _1587
REMARK  741  A    between atoms: _1587  and  _1588
REMARK  742  A    between atoms: _1587  and  _1590
REMARK  743  A    between atoms: _1590  and  _1591
REMARK  744  A    between atoms: _1594  and  _1595
REMARK  745  A    between atoms: _1595  and  _1596
REMARK  746  A    between atoms: _1598  and  _1599
REMARK  747  A    between atoms: _1599  and  _1600
REMARK  748  A    between atoms: _1599  and  _1602
REMARK  749  A    between atoms: _1602  and  _1603
REMARK  750  A    between atoms: _1611  and  _1612
REMARK  751  A    between atoms: _1617  and  _1618
REMARK  752  A    between atoms: _1618  and  _1619
REMARK  753  A    between atoms: _1618  and  _1621
REMARK  754  A    between atoms: _1621  and  _1622
REMARK  755  A    between atoms: _1625  and  _1626
REMARK  756  A    between atoms: _1626  and  _1627
REMARK  757  A    between atoms: _1626  and  _1629
REMARK  758  A    between atoms: _1632  and  _1633
REMARK  759  A    between atoms: _1633  and  _1634
REMARK  760  A    between atoms: _1633  and  _1636
REMARK  761  A    between atoms: _1636  and  _1637
REMARK  762  A    between atoms: _1640  and  _1641
REMARK  763  A    between atoms: _1641  and  _1642
REMARK  764  A    between atoms: _1641  and  _1644
REMARK  765  A    between atoms: _1644  and  _1645
REMARK  766  A    between atoms: _1651  and  _1652
REMARK  767  A    between atoms: _1652  and  _1653
REMARK  768  A    between atoms: _1652  and  _1655
REMARK  769  A    between atoms: _1658  and  _1659
REMARK  770  A    between atoms: _1659  and  _1660
REMARK  771  A    between atoms: _1659  and  _1662
REMARK  772  A    between atoms: _1662  and  _1663
REMARK  773  A    between atoms: _1663  and  _1664
REMARK  774  A    between atoms: _1667  and  _1668
REMARK  775  A    between atoms: _1668  and  _1669
REMARK  776  A    between atoms: _1668  and  _1671
REMARK  777  A    between atoms: _1671  and  _1672
REMARK  778  A    between atoms: _1672  and  _1673
REMARK  779  A    between atoms: _1673  and  _1674
REMARK                            x       y       z     vdW  Elec       q    Type
REMARK                         _______ _______ _______ _____ _____    ______ ____
ROOT
ATOM      1  N   UNL     1       0.951  28.365   9.072  0.00  0.00    -0.130 NA
ATOM      2  C   UNL     1       0.467  27.001   9.273  0.00  0.00    +0.130 C 
ENDROOT
TORSDOF 0
REMARK  Name = /Users/mlugowska/PhD/ML_residence_time_prediction/protein_files/5NYH_protein.pdb
REMARK  779 active torsions:
REMARK  status: ('A' for Active; 'I' for Inactive)
REMARK    1  A    between atoms: _2  and  _3
REMARK    2  A    between atoms: _2  and  _5
REMARK    3  A    between atoms: _5  and  _6
REMARK    4  A    between atoms: _6  and  _7
REMARK    5  A    between atoms: _10  and  _11
REMARK    6  A    between atoms: _11  and  _12
REMARK    7  A    between atoms: _11  and  _14
REMARK    8  A    between atoms: _17  and  _18
REMARK    9  A    between atoms: _18  and  _19
REMARK   10  A    between atoms: _18  and  _21
REMARK   11  A    between atoms: _21  and  _22
REMARK   12  A    between atoms: _22  and  _23
REMARK   13  A    between atoms: _26  and  _27
REMARK   14  A    between atoms: _27  and  _28
REMARK   15  A    between atoms: _27  and  _30
REMARK   16  A    between atoms: _33  and  _34
REMARK   17  A    between atoms: _34  and  _35
REMARK   18  A    between atoms: _34  and  _37
REMARK   19  A    between atoms: _37  and  _38
REMARK   20  A    between atoms: _44  and  _45
REMARK   21  A    between atoms: _45  and  _46
REMARK   22  A    between atoms: _49  and  _50
REMARK   23  A    between atoms: _50  and  _51
REMARK   24  A    between atoms: _50  and  _53
REMARK   25  A    between atoms: _53  and  _54
REMARK   26  A    between atoms: _60  and  _61
REMARK   27  A    between atoms: _61  and  _62
REMARK   28  A    between atoms: _61  and  _64
REMARK   29  A    between atoms: _64  and  _65
REMARK   30  A    between atoms: _65  and  _66
REMARK   31  A    between atoms: _69  and  _70
REMARK   32  A    between atoms: _70  and  _71
REMARK   33  A    between atoms: _74  and  _75
REMARK   34  A    between atoms: _75  and  _76
REMARK   35  A    between atoms: _75  and  _78
REMARK   36  A    between atoms: _78  and  _79
REMARK   37  A    between atoms: _79  and  _80
REMARK   38  A    between atoms: _83  and  _84
REMARK   39  A    between atoms: _84  and  _85
REMARK   40  A    between atoms: _84  and  _87
REMARK   41  A    between atoms: _87  and  _88
REMARK   42  A    between atoms: _91  and  _92
REMARK   43  A    between atoms: _92  and  _93
REMARK   44  A    between atoms: _96  and  _97
REMARK   45  A    between atoms: _97  and  _98
REMARK   46  A    between atoms: _97  and  _100
REMARK   47  A    between atoms: _100  and  _101
REMARK   48  A    between atoms: _101  and  _102
REMARK   49  A    between atoms: _105  and  _106
REMARK   50  A    between atoms: _106  and  _107
REMARK   51  A    between atoms: _106  and  _109
REMARK   52  A    between atoms: _109  and  _110
REMARK   53  A    between atoms: _113  and  _114
REMARK   54  A    between atoms: _114  and  _115
REMARK   55  A    between atoms: _114  and  _117
REMARK   56  A    between atoms: _117  and  _118
REMARK   57  A    between atoms: _118  and  _119
REMARK   58  A    between atoms: _121  and  _122
REMARK   59  A    between atoms: _122  and  _123
REMARK   60  A    between atoms: _122  and  _125
REMARK   61  A    between atoms: _127  and  _128
REMARK   62  A    between atoms: _128  and  _129
REMARK   63  A    between atoms: _128  and  _131
REMARK   64  A    between atoms: _131  and  _132
REMARK   65  A    between atoms: _135  and  _136
REMARK   66  A    between atoms: _136  and  _137
REMARK   67  A    between atoms: _136  and  _139
REMARK   68  A    between atoms: _139  and  _140
REMARK   69  A    between atoms: _143  and  _144
REMARK   70  A    between atoms: _144  and  _145
REMARK   71  A    between atoms: _144  and  _147
REMARK   72  A    between atoms: _147  and  _148
REMARK   73  A    between atoms: _151  and  _152
REMARK   74  A    between atoms: _152  and  _153
REMARK   75  A    between atoms: _152  and  _155
REMARK   76  A    between atoms: _155  and  _156
REMARK   77  A    between atoms: _159  and  _160
REMARK   78  A    between atoms: _160  and  _161
REMARK   79  A    between atoms: _160  and  _163
REMARK   80  A    between atoms: _166  and  _167
REMARK   81  A    between atoms: _167  and  _168
REMARK   82  A    between atoms: _167  and  _170
REMARK   83  A    between atoms: _170  and  _171
REMARK   84  A    between atoms: _177  and  _178
REMARK   85  A    between atoms: _178  and  _179
REMARK   86  A    between atoms: _178  and  _181
REMARK   87  A    between atoms: _181  and  _182
REMARK   88  A    between atoms: _189  and  _190
REMARK   89  A    between atoms: _190  and  _191
REMARK   90  A    between atoms: _190  and  _193
REMARK   91  A    between atoms: _195  and  _196
REMARK   92  A    between atoms: _196  and  _197
REMARK   93  A    between atoms: _196  and  _199
REMARK   94  A    between atoms: _199  and  _200
REMARK   95  A    between atoms: _203  and  _204
REMARK   96  A    between atoms: _204  and  _205
REMARK   97  A    between atoms: _204  and  _207
REMARK   98  A    between atoms: _207  and  _208
REMARK   99  A    between atoms: _208  and  _209
REMARK  100  A    between atoms: _209  and  _210
REMARK  101  A    between atoms: _212  and  _213
REMARK  102  A    between atoms: _213  and  _214
REMARK  103  A    between atoms: _213  and  _216
REMARK  104  A    between atoms: _216  and  _217
REMARK  105  A    between atoms: _217  and  _218
REMARK  106  A    between atoms: _221  and  _222
REMARK  107  A    between atoms: _222  and  _223
REMARK  108  A    between atoms: _222  and  _225
REMARK  109  A    between atoms: _225  and  _226
REMARK  110  A    between atoms: _229  and  _230
REMARK  111  A    between atoms: _230  and  _231
REMARK  112  A    between atoms: _230  and  _233
REMARK  113  A    between atoms: _233  and  _234
REMARK  114  A    between atoms: _240  and  _241
REMARK  115  A    between atoms: _241  and  _242
REMARK  116  A    between atoms: _241  and  _244
REMARK  117  A    between atoms: _244  and  _245
REMARK  118  A    between atoms: _248  and  _249
REMARK  119  A    between atoms: _249  and  _250
REMARK  120  A    between atoms: _249  and  _252
REMARK  121  A    between atoms: _252  and  _253
REMARK  122  A    between atoms: _253  and  _254
REMARK  123  A    between atoms: _254  and  _255
REMARK  124  A    between atoms: _259  and  _260
REMARK  125  A    between atoms: _260  and  _261
REMARK  126  A    between atoms: _260  and  _263
REMARK  127  A    between atoms: _263  and  _264
REMARK  128  A    between atoms: _264  and  _265
REMARK  129  A    between atoms: _268  and  _269
REMARK  130  A    between atoms: _269  and  _270
REMARK  131  A    between atoms: _269  and  _272
REMARK  132  A    between atoms: _272  and  _273
REMARK  133  A    between atoms: _276  and  _277
REMARK  134  A    between atoms: _277  and  _278
REMARK  135  A    between atoms: _277  and  _280
REMARK  136  A    between atoms: _280  and  _281
REMARK  137  A    between atoms: _284  and  _285
REMARK  138  A    between atoms: _285  and  _286
REMARK  139  A    between atoms: _285  and  _288
REMARK  140  A    between atoms: _290  and  _291
REMARK  141  A    between atoms: _291  and  _292
REMARK  142  A    between atoms: _291  and  _294
REMARK  143  A    between atoms: _294  and  _295
REMARK  144  A    between atoms: _298  and  _299
REMARK  145  A    between atoms: _299  and  _300
REMARK  146  A    between atoms: _299  and  _302
REMARK  147  A    between atoms: _304  and  _305
REMARK  148  A    between atoms: _305  and  _306
REMARK  149  A    between atoms: _305  and  _308
REMARK  150  A    between atoms: _310  and  _311
REMARK  151  A    between atoms: _311  and  _312
REMARK  152  A    between atoms: _311  and  _314
REMARK  153  A    between atoms: _314  and  _315
REMARK  154  A    between atoms: _318  and  _319
REMARK  155  A    between atoms: _319  and  _320
REMARK  156  A    between atoms: _323  and  _324
REMARK  157  A    between atoms: _324  and  _325
REMARK  158  A    between atoms: _324  and  _327
REMARK  159  A    between atoms: _327  and  _328
REMARK  160  A    between atoms: _331  and  _332
REMARK  161  A    between atoms: _332  and  _333
REMARK  162  A    between atoms: _332  and  _335
REMARK  163  A    between atoms: _335  and  _336
REMARK  164  A    between atoms: _339  and  _340
REMARK  165  A    between atoms: _340  and  _341
REMARK  166  A    between atoms: _340  and  _343
REMARK  167  A    between atoms: _343  and  _344
REMARK  168  A    between atoms: _344  and  _345
REMARK  169  A    between atoms: _345  and  _346
REMARK  170  A    between atoms: _348  and  _349
REMARK  171  A    between atoms: _349  and  _350
REMARK  172  A    between atoms: _349  and  _352
REMARK  173  A    between atoms: _352  and  _353
REMARK  174  A    between atoms: _356  and  _357
REMARK  175  A    between atoms: _357  and  _358
REMARK  176  A    between atoms: _357  and  _360
REMARK  177  A    between atoms: _360  and  _361
REMARK  178  A    between atoms: _361  and  _362
REMARK  179  A    between atoms: _362  and  _363
REMARK  180  A    between atoms: _367  and  _368
REMARK  181  A    between atoms: _368  and  _369
REMARK  182  A    between atoms: _368  and  _371
REMARK  183  A    between atoms: _371  and  _372
REMARK  184  A    between atoms: _379  and  _380
REMARK  185  A    between atoms: _380  and  _381
REMARK  186  A    between atoms: _380  and  _383
REMARK  187  A    between atoms: _383  and  _384
REMARK  188  A    between atoms: _384  and  _385
REMARK  189  A    between atoms: _388  and  _389
REMARK  190  A    between atoms: _389  and  _390
REMARK  191  A    between atoms: _389  and  _392
REMARK  192  A    between atoms: _394  and  _395
REMARK  193  A    between atoms: _395  and  _396
REMARK  194  A    between atoms: _395  and  _398
REMARK  195  A    between atoms: _398  and  _399
REMARK  196  A    between atoms: _402  and  _403
REMARK  197  A    between atoms: _403  and  _404
REMARK  198  A    between atoms: _403  and  _406
REMARK  199  A    between atoms: _409  and  _410
REMARK  200  A    between atoms: _410  and  _411
REMARK  201  A    between atoms: _410  and  _413
REMARK  202  A    between atoms: _413  and  _414
REMARK  203  A    between atoms: _418  and  _419
REMARK  204  A    between atoms: _424  and  _425
REMARK  205  A    between atoms: _425  and  _426
REMARK  206  A    between atoms: _425  and  _428
REMARK  207  A    between atoms: _430  and  _431
REMARK  208  A    between atoms: _431  and  _432
REMARK  209  A    between atoms: _431  and  _434
REMARK  210  A    between atoms: _434  and  _435
REMARK  211  A    between atoms: _435  and  _436
REMARK  212  A    between atoms: _436  and  _437
REMARK  213  A    between atoms: _439  and  _440
REMARK  214  A    between atoms: _440  and  _441
REMARK  215  A    between atoms: _440  and  _443
REMARK  216  A    between atoms: _443  and  _444
REMARK  217  A    between atoms: _447  and  _448
REMARK  218  A    between atoms: _448  and  _449
REMARK  219  A    between atoms: _448  and  _451
REMARK  220  A    between atoms: _451  and  _452
REMARK  221  A    between atoms: _455  and  _456
REMARK  222  A    between atoms: _456  and  _457
REMARK  223  A    between atoms: _456  and  _459
REMARK  224  A    between atoms: _461  and  _462
REMARK  225  A    between atoms: _462  and  _463
REMARK  226  A    between atoms: _465  and  _466
REMARK  227  A    between atoms: _466  and  _467
REMARK  228  A    between atoms: _466  and  _469
REMARK  229  A    between atoms: _469  and  _470
REMARK  230  A    between atoms: _470  and  _471
REMARK  231  A    between atoms: _471  and  _472
REMARK  232  A    between atoms: _474  and  _475
REMARK  233  A    between atoms: _475  and  _476
REMARK  234  A    between atoms: _475  and  _478
REMARK  235  A    between atoms: _478  and  _479
REMARK  236  A    between atoms: _479  and  _480
REMARK  237  A    between atoms: _483  and  _484
REMARK  238  A    between atoms: _484  and  _485
REMARK  239  A    between atoms: _484  and  _487
REMARK  240  A    between atoms: _487  and  _488
REMARK  241  A    between atoms: _491  and  _492
REMARK  242  A    between atoms: _492  and  _493
REMARK  243  A    between atoms: _492  and  _495
REMARK  244  A    between atoms: _495  and  _496
REMARK  245  A    between atoms: _501  and  _502
REMARK  246  A    between atoms: _502  and  _503
REMARK  247  A    between atoms: _502  and  _505
REMARK  248  A    between atoms: _505  and  _506
REMARK  249  A    between atoms: _509  and  _510
REMARK  250  A    between atoms: _510  and  _511
REMARK  251  A    between atoms: _510  and  _513
REMARK  252  A    between atoms: _513  and  _514
REMARK  253  A    between atoms: _517  and  _518
REMARK  254  A    between atoms: _518  and  _519
REMARK  255  A    between atoms: _518  and  _521
REMARK  256  A    between atoms: _521  and  _522
REMARK  257  A    between atoms: _525  and  _526
REMARK  258  A    between atoms: _526  and  _527
REMARK  259  A    between atoms: _526  and  _529
REMARK  260  A    between atoms: _529  and  _530
REMARK  261  A    between atoms: _534  and  _535
REMARK  262  A    between atoms: _540  and  _541
REMARK  263  A    between atoms: _541  and  _542
REMARK  264  A    between atoms: _541  and  _544
REMARK  265  A    between atoms: _544  and  _545
REMARK  266  A    between atoms: _548  and  _549
REMARK  267  A    between atoms: _549  and  _552
REMARK  268  A    between atoms: _552  and  _553
REMARK  269  A    between atoms: _553  and  _554
REMARK  270  A    between atoms: _554  and  _555
REMARK  271  A    between atoms: _568  and  _569
REMARK  272  A    between atoms: _576  and  _577
REMARK  273  A    between atoms: _576  and  _579
REMARK  274  A    between atoms: _579  and  _580
REMARK  275  A    between atoms: _583  and  _584
REMARK  276  A    between atoms: _584  and  _585
REMARK  277  A    between atoms: _584  and  _587
REMARK  278  A    between atoms: _587  and  _588
REMARK  279  A    between atoms: _588  and  _589
REMARK  280  A    between atoms: _589  and  _590
REMARK  281  A    between atoms: _594  and  _595
REMARK  282  A    between atoms: _595  and  _596
REMARK  283  A    between atoms: _595  and  _598
REMARK  284  A    between atoms: _601  and  _602
REMARK  285  A    between atoms: _602  and  _603
REMARK  286  A    between atoms: _602  and  _605
REMARK  287  A    between atoms: _605  and  _606
REMARK  288  A    between atoms: _609  and  _610
REMARK  289  A    between atoms: _610  and  _611
REMARK  290  A    between atoms: _610  and  _613
REMARK  291  A    between atoms: _616  and  _617
REMARK  292  A    between atoms: _617  and  _618
REMARK  293  A    between atoms: _617  and  _620
REMARK  294  A    between atoms: _620  and  _621
REMARK  295  A    between atoms: _624  and  _625
REMARK  296  A    between atoms: _625  and  _626
REMARK  297  A    between atoms: _625  and  _628
REMARK  298  A    between atoms: _631  and  _632
REMARK  299  A    between atoms: _632  and  _633
REMARK  300  A    between atoms: _632  and  _635
REMARK  301  A    between atoms: _635  and  _636
REMARK  302  A    between atoms: _639  and  _640
REMARK  303  A    between atoms: _640  and  _641
REMARK  304  A    between atoms: _640  and  _643
REMARK  305  A    between atoms: _646  and  _647
REMARK  306  A    between atoms: _647  and  _648
REMARK  307  A    between atoms: _650  and  _651
REMARK  308  A    between atoms: _651  and  _652
REMARK  309  A    between atoms: _651  and  _654
REMARK  310  A    between atoms: _654  and  _655
REMARK  311  A    between atoms: _658  and  _659
REMARK  312  A    between atoms: _659  and  _660
REMARK  313  A    between atoms: _662  and  _663
REMARK  314  A    between atoms: _663  and  _664
REMARK  315  A    between atoms: _663  and  _666
REMARK  316  A    between atoms: _666  and  _667
REMARK  317  A    between atoms: _667  and  _668
REMARK  318  A    between atoms: _670  and  _671
REMARK  319  A    between atoms: _671  and  _672
REMARK  320  A    between atoms: _671  and  _674
REMARK  321  A    between atoms: _677  and  _678
REMARK  322  A    between atoms: _678  and  _679
REMARK  323  A    between atoms: _678  and  _681
REMARK  324  A    between atoms: _681  and  _682
REMARK  325  A    between atoms: _682  and  _683
REMARK  326  A    between atoms: _683  and  _684
REMARK  327  A    between atoms: _686  and  _687
REMARK  328  A    between atoms: _687  and  _688
REMARK  329  A    between atoms: _691  and  _692
REMARK  330  A    between atoms: _692  and  _693
REMARK  331  A    between atoms: _692  and  _695
REMARK  332  A    between atoms: _695  and  _696
REMARK  333  A    between atoms: _699  and  _700
REMARK  334  A    between atoms: _700  and  _701
REMARK  335  A    between atoms: _700  and  _703
REMARK  336  A    between atoms: _703  and  _704
REMARK  337  A    between atoms: _707  and  _708
REMARK  338  A    between atoms: _708  and  _709
REMARK  339  A    between atoms: _708  and  _711
REMARK  340  A    between atoms: _711  and  _712
REMARK  341  A    between atoms: _715  and  _716
REMARK  342  A    between atoms: _716  and  _717
REMARK  343  A    between atoms: _716  and  _719
REMARK  344  A    between atoms: _719  and  _720
REMARK  345  A    between atoms: _723  and  _724
REMARK  346  A    between atoms: _724  and  _725
REMARK  347  A    between atoms: _724  and  _727
REMARK  348  A    between atoms: _727  and  _728
REMARK  349  A    between atoms: _731  and  _732
REMARK  350  A    between atoms: _732  and  _733
REMARK  351  A    between atoms: _732  and  _735
REMARK  352  A    between atoms: _735  and  _736
REMARK  353  A    between atoms: _739  and  _740
REMARK  354  A    between atoms: _740  and  _741
REMARK  355  A    between atoms: _743  and  _744
REMARK  356  A    between atoms: _744  and  _745
REMARK  357  A    between atoms: _744  and  _747
REMARK  358  A    between atoms: _750  and  _751
REMARK  359  A    between atoms: _751  and  _752
REMARK  360  A    between atoms: _751  and  _754
REMARK  361  A    between atoms: _754  and  _755
REMARK  362  A    between atoms: _758  and  _759
REMARK  363  A    between atoms: _759  and  _760
REMARK  364  A    between atoms: _763  and  _764
REMARK  365  A    between atoms: _764  and  _765
REMARK  366  A    between atoms: _764  and  _767
REMARK  367  A    between atoms: _767  and  _768
REMARK  368  A    between atoms: _768  and  _769
REMARK  369  A    between atoms: _769  and  _770
REMARK  370  A    between atoms: _772  and  _773
REMARK  371  A    between atoms: _773  and  _774
REMARK  372  A    between atoms: _773  and  _776
REMARK  373  A    between atoms: _778  and  _779
REMARK  374  A    between atoms: _779  and  _780
REMARK  375  A    between atoms: _782  and  _783
REMARK  376  A    between atoms: _783  and  _784
REMARK  377  A    between atoms: _783  and  _786
REMARK  378  A    between atoms: _789  and  _790
REMARK  379  A    between atoms: _790  and  _791
REMARK  380  A    between atoms: _790  and  _793
REMARK  381  A    between atoms: _793  and  _794
REMARK  382  A    between atoms: _794  and  _795
REMARK  383  A    between atoms: _795  and  _796
REMARK  384  A    between atoms: _798  and  _799
REMARK  385  A    between atoms: _799  and  _800
REMARK  386  A    between atoms: _803  and  _804
REMARK  387  A    between atoms: _804  and  _805
REMARK  388  A    between atoms: _804  and  _807
REMARK  389  A    between atoms: _807  and  _808
REMARK  390  A    between atoms: _814  and  _815
REMARK  391  A    between atoms: _815  and  _816
REMARK  392  A    between atoms: _815  and  _818
REMARK  393  A    between atoms: _818  and  _819
REMARK  394  A    between atoms: _819  and  _820
REMARK  395  A    between atoms: _822  and  _823
REMARK  396  A    between atoms: _823  and  _824
REMARK  397  A    between atoms: _823  and  _826
REMARK  398  A    between atoms: _826  and  _827
REMARK  399  A    between atoms: _827  and  _828
REMARK  400  A    between atoms: _831  and  _832
REMARK  401  A    between atoms: _832  and  _833
REMARK  402  A    between atoms: _836  and  _837
REMARK  403  A    between atoms: _837  and  _838
REMARK  404  A    between atoms: _837  and  _840
REMARK  405  A    between atoms: _840  and  _841
REMARK  406  A    between atoms: _844  and  _845
REMARK  407  A    between atoms: _845  and  _846
REMARK  408  A    between atoms: _845  and  _848
REMARK  409  A    between atoms: _848  and  _849
REMARK  410  A    between atoms: _849  and  _850
REMARK  411  A    between atoms: _853  and  _854
REMARK  412  A    between atoms: _854  and  _855
REMARK  413  A    between atoms: _858  and  _859
REMARK  414  A    between atoms: _859  and  _860
REMARK  415  A    between atoms: _862  and  _863
REMARK  416  A    between atoms: _863  and  _864
REMARK  417  A    between atoms: _867  and  _868
REMARK  418  A    between atoms: _868  and  _869
REMARK  419  A    between atoms: _868  and  _871
REMARK  420  A    between atoms: _871  and  _872
REMARK  421  A    between atoms: _875  and  _876
REMARK  422  A    between atoms: _876  and  _877
REMARK  423  A    between atoms: _876  and  _879
REMARK  424  A    between atoms: _879  and  _880
REMARK  425  A    between atoms: _883  and  _884
REMARK  426  A    between atoms: _884  and  _887
REMARK  427  A    between atoms: _906  and  _907
REMARK  428  A    between atoms: _906  and  _909
REMARK  429  A    between atoms: _909  and  _910
REMARK  430  A    between atoms: _913  and  _914
REMARK  431  A    between atoms: _914  and  _915
REMARK  432  A    between atoms: _917  and  _918
REMARK  433  A    between atoms: _918  and  _919
REMARK  434  A    between atoms: _918  and  _921
REMARK  435  A    between atoms: _921  and  _922
REMARK  436  A    between atoms: _922  and  _923
REMARK  437  A    between atoms: _926  and  _927
REMARK  438  A    between atoms: _927  and  _928
REMARK  439  A    between atoms: _927  and  _930
REMARK  440  A    between atoms: _930  and  _931
REMARK  441  A    between atoms: _937  and  _938
REMARK  442  A    between atoms: _938  and  _939
REMARK  443  A    between atoms: _941  and  _942
REMARK  444  A    between atoms: _942  and  _943
REMARK  445  A    between atoms: _942  and  _945
REMARK  446  A    between atoms: _948  and  _949
REMARK  447  A    between atoms: _949  and  _950
REMARK  448  A    between atoms: _952  and  _953
REMARK  449  A    between atoms: _953  and  _954
REMARK  450  A    between atoms: _953  and  _956
REMARK  451  A    between atoms: _956  and  _957
REMARK  452  A    between atoms: _963  and  _964
REMARK  453  A    between atoms: _964  and  _965
REMARK  454  A    between atoms: _964  and  _967
REMARK  455  A    between atoms: _967  and  _968
REMARK  456  A    between atoms: _975  and  _976
REMARK  457  A    between atoms: _976  and  _977
REMARK  458  A    between atoms: _976  and  _979
REMARK  459  A    between atoms: _981  and  _982
REMARK  460  A    between atoms: _982  and  _983
REMARK  461  A    between atoms: _986  and  _987
REMARK  462  A    between atoms: _987  and  _988
REMARK  463  A    between atoms: _987  and  _990
REMARK  464  A    between atoms: _990  and  _991
REMARK  465  A    between atoms: _998  and  _999
REMARK  466  A    between atoms: _999  and  _1000
REMARK  467  A    between atoms: _999  and  _1002
REMARK  468  A    between atoms: _1002  and  _1003
REMARK  469  A    between atoms: _1006  and  _1007
REMARK  470  A    between atoms: _1007  and  _1008
REMARK  471  A    between atoms: _1007  and  _1010
REMARK  472  A    between atoms: _1013  and  _1014
REMARK  473  A    between atoms: _1014  and  _1015
REMARK  474  A    between atoms: _1018  and  _1019
REMARK  475  A    between atoms: _1019  and  _1020
REMARK  476  A    between atoms: _1019  and  _1022
REMARK  477  A    between atoms: _1023  and  _1024
REMARK  478  A    between atoms: _1027  and  _1028
REMARK  479  A    between atoms: _1028  and  _1029
REMARK  480  A    between atoms: _1028  and  _1031
REMARK  481  A    between atoms: _1031  and  _1032
REMARK  482  A    between atoms: _1032  and  _1033
REMARK  483  A    between atoms: _1033  and  _1034
REMARK  484  A    between atoms: _1036  and  _1037
REMARK  485  A    between atoms: _1037  and  _1038
REMARK  486  A    between atoms: _1037  and  _1040
REMARK  487  A    between atoms: _1043  and  _1044
REMARK  488  A    between atoms: _1044  and  _1045
REMARK  489  A    between atoms: _1044  and  _1047
REMARK  490  A    between atoms: _1050  and  _1051
REMARK  491  A    between atoms: _1051  and  _1052
REMARK  492  A    between atoms: _1051  and  _1054
REMARK  493  A    between atoms: _1057  and  _1058
REMARK  494  A    between atoms: _1058  and  _1059
REMARK  495  A    between atoms: _1058  and  _1061
REMARK  496  A    between atoms: _1061  and  _1062
REMARK  497  A    between atoms: _1065  and  _1066
REMARK  498  A    between atoms: _1066  and  _1067
REMARK  499  A    between atoms: _1066  and  _1069
REMARK  500  A    between atoms: _1072  and  _1073
REMARK  501  A    between atoms: _1073  and  _1074
REMARK  502  A    between atoms: _1073  and  _1076
REMARK  503  A    between atoms: _1076  and  _1077
REMARK  504  A    between atoms: _1077  and  _1078
REMARK  505  A    between atoms: _1078  and  _1079
REMARK  506  A    between atoms: _1081  and  _1082
REMARK  507  A    between atoms: _1082  and  _1083
REMARK  508  A    between atoms: _1082  and  _1085
REMARK  509  A    between atoms: _1085  and  _1086
REMARK  510  A    between atoms: _1091  and  _1092
REMARK  511  A    between atoms: _1092  and  _1093
REMARK  512  A    between atoms: _1092  and  _1095
REMARK  513  A    between atoms: _1095  and  _1096
REMARK  514  A    between atoms: _1099  and  _1100
REMARK  515  A    between atoms: _1100  and  _1101
REMARK  516  A    between atoms: _1100  and  _1103
REMARK  517  A    between atoms: _1103  and  _1104
REMARK  518  A    between atoms: _1107  and  _1108
REMARK  519  A    between atoms: _1108  and  _1111
REMARK  520  A    between atoms: _1111  and  _1112
REMARK  521  A    between atoms: _1125  and  _1127
REMARK  522  A    between atoms: _1134  and  _1135
REMARK  523  A    between atoms: _1134  and  _1137
REMARK  524  A    between atoms: _1137  and  _1138
REMARK  525  A    between atoms: _1138  and  _1139
REMARK  526  A    between atoms: _1142  and  _1143
REMARK  527  A    between atoms: _1143  and  _1144
REMARK  528  A    between atoms: _1143  and  _1146
REMARK  529  A    between atoms: _1146  and  _1147
REMARK  530  A    between atoms: _1154  and  _1155
REMARK  531  A    between atoms: _1155  and  _1156
REMARK  532  A    between atoms: _1159  and  _1160
REMARK  533  A    between atoms: _1160  and  _1161
REMARK  534  A    between atoms: _1160  and  _1163
REMARK  535  A    between atoms: _1163  and  _1164
REMARK  536  A    between atoms: _1173  and  _1174
REMARK  537  A    between atoms: _1174  and  _1175
REMARK  538  A    between atoms: _1174  and  _1177
REMARK  539  A    between atoms: _1177  and  _1178
REMARK  540  A    between atoms: _1178  and  _1179
REMARK  541  A    between atoms: _1182  and  _1183
REMARK  542  A    between atoms: _1183  and  _1184
REMARK  543  A    between atoms: _1183  and  _1186
REMARK  544  A    between atoms: _1188  and  _1189
REMARK  545  A    between atoms: _1189  and  _1190
REMARK  546  A    between atoms: _1189  and  _1192
REMARK  547  A    between atoms: _1194  and  _1195
REMARK  548  A    between atoms: _1195  and  _1196
REMARK  549  A    between atoms: _1199  and  _1200
REMARK  550  A    between atoms: _1200  and  _1201
REMARK  551  A    between atoms: _1203  and  _1204
REMARK  552  A    between atoms: _1204  and  _1205
REMARK  553  A    between atoms: _1207  and  _1208
REMARK  554  A    between atoms: _1208  and  _1209
REMARK  555  A    between atoms: _1208  and  _1211
REMARK  556  A    between atoms: _1213  and  _1214
REMARK  557  A    between atoms: _1214  and  _1215
REMARK  558  A    between atoms: _1214  and  _1217
REMARK  559  A    between atoms: _1217  and  _1218
REMARK  560  A    between atoms: _1224  and  _1225
REMARK  561  A    between atoms: _1225  and  _1226
REMARK  562  A    between atoms: _1225  and  _1228
REMARK  563  A    between atoms: _1231  and  _1232
REMARK  564  A    between atoms: _1232  and  _1233
REMARK  565  A    between atoms: _1232  and  _1235
REMARK  566  A    between atoms: _1238  and  _1239
REMARK  567  A    between atoms: _1239  and  _1240
REMARK  568  A    between atoms: _1239  and  _1242
REMARK  569  A    between atoms: _1242  and  _1243
REMARK  570  A    between atoms: _1243  and  _1244
REMARK  571  A    between atoms: _1244  and  _1245
REMARK  572  A    between atoms: _1249  and  _1250
REMARK  573  A    between atoms: _1250  and  _1251
REMARK  574  A    between atoms: _1250  and  _1253
REMARK  575  A    between atoms: _1256  and  _1257
REMARK  576  A    between atoms: _1257  and  _1258
REMARK  577  A    between atoms: _1257  and  _1260
REMARK  578  A    between atoms: _1260  and  _1261
REMARK  579  A    between atoms: _1264  and  _1265
REMARK  580  A    between atoms: _1265  and  _1266
REMARK  581  A    between atoms: _1265  and  _1268
REMARK  582  A    between atoms: _1271  and  _1272
REMARK  583  A    between atoms: _1272  and  _1273
REMARK  584  A    between atoms: _1275  and  _1276
REMARK  585  A    between atoms: _1276  and  _1277
REMARK  586  A    between atoms: _1276  and  _1279
REMARK  587  A    between atoms: _1279  and  _1280
REMARK  588  A    between atoms: _1280  and  _1281
REMARK  589  A    between atoms: _1285  and  _1286
REMARK  590  A    between atoms: _1291  and  _1293
REMARK  591  A    between atoms: _1298  and  _1299
REMARK  592  A    between atoms: _1299  and  _1301
REMARK  593  A    between atoms: _1300  and  _1301
REMARK  594  A    between atoms: _1304  and  _1305
REMARK  595  A    between atoms: _1305  and  _1306
REMARK  596  A    between atoms: _1308  and  _1309
REMARK  597  A    between atoms: _1309  and  _1310
REMARK  598  A    between atoms: _1309  and  _1312
REMARK  599  A    between atoms: _1312  and  _1313
REMARK  600  A    between atoms: _1313  and  _1314
REMARK  601  A    between atoms: _1314  and  _1315
REMARK  602  A    between atoms: _1319  and  _1320
REMARK  603  A    between atoms: _1320  and  _1321
REMARK  604  A    between atoms: _1323  and  _1324
REMARK  605  A    between atoms: _1324  and  _1325
REMARK  606  A    between atoms: _1324  and  _1327
REMARK  607  A    between atoms: _1330  and  _1331
REMARK  608  A    between atoms: _1331  and  _1332
REMARK  609  A    between atoms: _1331  and  _1334
REMARK  610  A    between atoms: _1334  and  _1335
REMARK  611  A    between atoms: _1335  and  _1336
REMARK  612  A    between atoms: _1336  and  _1337
REMARK  613  A    between atoms: _1339  and  _1340
REMARK  614  A    between atoms: _1340  and  _1341
REMARK  615  A    between atoms: _1340  and  _1343
REMARK  616  A    between atoms: _1346  and  _1347
REMARK  617  A    between atoms: _1347  and  _1348
REMARK  618  A    between atoms: _1347  and  _1350
REMARK  619  A    between atoms: _1350  and  _1351
REMARK  620  A    between atoms: _1354  and  _1355
REMARK  621  A    between atoms: _1355  and  _1356
REMARK  622  A    between atoms: _1355  and  _1358
REMARK  623  A    between atoms: _1358  and  _1359
REMARK  624  A    between atoms: _1362  and  _1363
REMARK  625  A    between atoms: _1363  and  _1364
REMARK  626  A    between atoms: _1363  and  _1366
REMARK  627  A    between atoms: _1366  and  _1367
REMARK  628  A    between atoms: _1372  and  _1373
REMARK  629  A    between atoms: _1373  and  _1374
REMARK  630  A    between atoms: _1373  and  _1376
REMARK  631  A    between atoms: _1376  and  _1377
REMARK  632  A    between atoms: _1380  and  _1381
REMARK  633  A    between atoms: _1381  and  _1382
REMARK  634  A    between atoms: _1381  and  _1384
REMARK  635  A    between atoms: _1384  and  _1385
REMARK  636  A    between atoms: _1385  and  _1386
REMARK  637  A    between atoms: _1386  and  _1387
REMARK  638  A    between atoms: _1389  and  _1390
REMARK  639  A    between atoms: _1390  and  _1391
REMARK  640  A    between atoms: _1390  and  _1393
REMARK  641  A    between atoms: _1393  and  _1394
REMARK  642  A    between atoms: _1394  and  _1395
REMARK  643  A    between atoms: _1398  and  _1399
REMARK  644  A    between atoms: _1399  and  _1400
REMARK  645  A    between atoms: _1399  and  _1402
REMARK  646  A    between atoms: _1402  and  _1403
REMARK  647  A    between atoms: _1406  and  _1407
REMARK  648  A    between atoms: _1407  and  _1408
REMARK  649  A    between atoms: _1407  and  _1410
REMARK  650  A    between atoms: _1410  and  _1411
REMARK  651  A    between atoms: _1411  and  _1412
REMARK  652  A    between atoms: _1415  and  _1416
REMARK  653  A    between atoms: _1416  and  _1417
REMARK  654  A    between atoms: _1416  and  _1419
REMARK  655  A    between atoms: _1422  and  _1423
REMARK  656  A    between atoms: _1423  and  _1424
REMARK  657  A    between atoms: _1423  and  _1426
REMARK  658  A    between atoms: _1426  and  _1427
REMARK  659  A    between atoms: _1427  and  _1428
REMARK  660  A    between atoms: _1431  and  _1432
REMARK  661  A    between atoms: _1432  and  _1433
REMARK  662  A    between atoms: _1432  and  _1435
REMARK  663  A    between atoms: _1435  and  _1436
REMARK  664  A    between atoms: _1443  and  _1444
REMARK  665  A    between atoms: _1444  and  _1445
REMARK  666  A    between atoms: _1444  and  _1447
REMARK  667  A    between atoms: _1447  and  _1448
REMARK  668  A    between atoms: _1451  and  _1452
REMARK  669  A    between atoms: _1452  and  _1453
REMARK  670  A    between atoms: _1452  and  _1455
REMARK  671  A    between atoms: _1455  and  _1456
REMARK  672  A    between atoms: _1456  and  _1457
REMARK  673  A    between atoms: _1460  and  _1461
REMARK  674  A    between atoms: _1461  and  _1462
REMARK  675  A    between atoms: _1461  and  _1464
REMARK  676  A    between atoms: _1464  and  _1465
REMARK  677  A    between atoms: _1465  and  _1466
REMARK  678  A    between atoms: _1469  and  _1470
REMARK  679  A    between atoms: _1470  and  _1471
REMARK  680  A    between atoms: _1470  and  _1473
REMARK  681  A    between atoms: _1473  and  _1474
REMARK  682  A    between atoms: _1474  and  _1475
REMARK  683  A    between atoms: _1475  and  _1476
REMARK  684  A    between atoms: _1480  and  _1481
REMARK  685  A    between atoms: _1481  and  _1482
REMARK  686  A    between atoms: _1481  and  _1484
REMARK  687  A    between atoms: _1484  and  _1485
REMARK  688  A    between atoms: _1485  and  _1486
REMARK  689  A    between atoms: _1486  and  _1487
REMARK  690  A    between atoms: _1491  and  _1492
REMARK  691  A    between atoms: _1492  and  _1493
REMARK  692  A    between atoms: _1492  and  _1495
REMARK  693  A    between atoms: _1495  and  _1496
REMARK  694  A    between atoms: _1499  and  _1500
REMARK  695  A    between atoms: _1500  and  _1501
REMARK  696  A    between atoms: _1500  and  _1503
REMARK  697  A    between atoms: _1503  and  _1504
REMARK  698  A    between atoms: _1504  and  _1505
REMARK  699  A    between atoms: _1505  and  _1506
REMARK  700  A    between atoms: _1508  and  _1509
REMARK  701  A    between atoms: _1509  and  _1510
REMARK  702  A    between atoms: _1509  and  _1512
REMARK  703  A    between atoms: _1512  and  _1513
REMARK  704  A    between atoms: _1513  and  _1514
REMARK  705  A    between atoms: _1517  and  _1518
REMARK  706  A    between atoms: _1518  and  _1519
REMARK  707  A    between atoms: _1518  and  _1521
REMARK  708  A    between atoms: _1521  and  _1522
REMARK  709  A    between atoms: _1525  and  _1526
REMARK  710  A    between atoms: _1526  and  _1527
REMARK  711  A    between atoms: _1526  and  _1529
REMARK  712  A    between atoms: _1532  and  _1533
REMARK  713  A    between atoms: _1533  and  _1534
REMARK  714  A    between atoms: _1533  and  _1536
REMARK  715  A    between atoms: _1536  and  _1537
REMARK  716  A    between atoms: _1537  and  _1538
REMARK  717  A    between atoms: _1538  and  _1539
REMARK  718  A    between atoms: _1541  and  _1542
REMARK  719  A    between atoms: _1542  and  _1543
REMARK  720  A    between atoms: _1542  and  _1545
REMARK  721  A    between atoms: _1545  and  _1546
REMARK  722  A    between atoms: _1546  and  _1547
REMARK  723  A    between atoms: _1547  and  _1548
REMARK  724  A    between atoms: _1550  and  _1551
REMARK  725  A    between atoms: _1551  and  _1552
REMARK  726  A    between atoms: _1551  and  _1554
REMARK  727  A    between atoms: _1554  and  _1555
REMARK  728  A    between atoms: _1560  and  _1561
REMARK  729  A    between atoms: _1561  and  _1562
REMARK  730  A    between atoms: _1561  and  _1564
REMARK  731  A    between atoms: _1566  and  _1567
REMARK  732  A    between atoms: _1567  and  _1568
REMARK  733  A    between atoms: _1567  and  _1570
REMARK  734  A    between atoms: _1570  and  _1571
REMARK  735  A    between atoms: _1571  and  _1572
REMARK  736  A    between atoms: _1575  and  _1576
REMARK  737  A    between atoms: _1576  and  _1577
REMARK  738  A    between atoms: _1576  and  _1579
REMARK  739  A    between atoms: _1579  and  _1580
REMARK  740  A    between atoms: _1586  and  _1587
REMARK  741  A    between atoms: _1587  and  _1588
REMARK  742  A    between atoms: _1587  and  _1590
REMARK  743  A    between atoms: _1590  and  _1591
REMARK  744  A    between atoms: _1594  and  _1595
REMARK  745  A    between atoms: _1595  and  _1596
REMARK  746  A    between atoms: _1598  and  _1599
REMARK  747  A    between atoms: _1599  and  _1600
REMARK  748  A    between atoms: _1599  and  _1602
REMARK  749  A    between atoms: _1602  and  _1603
REMARK  750  A    between atoms: _1611  and  _1612
REMARK  751  A    between atoms: _1617  and  _1618
REMARK  752  A    between atoms: _1618  and  _1619
REMARK  753  A    between atoms: _1618  and  _1621
REMARK  754  A    between atoms: _1621  and  _1622
REMARK  755  A    between atoms: _1625  and  _1626
REMARK  756  A    between atoms: _1626  and  _1627
REMARK  757  A    between atoms: _1626  and  _1629
REMARK  758  A    between atoms: _1632  and  _1633
REMARK  759  A    between atoms: _1633  and  _1634
REMARK  760  A    between atoms: _1633  and  _1636
REMARK  761  A    between atoms: _1636  and  _1637
REMARK  762  A    between atoms: _1640  and  _1641
REMARK  763  A    between atoms: _1641  and  _1642
REMARK  764  A    between atoms: _1641  and  _1644
REMARK  765  A    between atoms: _1644  and  _1645
REMARK  766  A    between atoms: _1651  and  _1652
REMARK  767  A    between atoms: _1652  and  _1653
REMARK  768  A    between atoms: _1652  and  _1655
REMARK  769  A    between atoms: _1658  and  _1659
REMARK  770  A    between atoms: _1659  and  _1660
REMARK  771  A    between atoms: _1659  and  _1662
REMARK  772  A    between atoms: _1662  and  _1663
REMARK  773  A    between atoms: _1663  and  _1664
REMARK  774  A    between atoms: _1667  and  _1668
REMARK  775  A    between atoms: _1668  and  _1669
REMARK  776  A    between atoms: _1668  and  _1671
REMARK  777  A    between atoms: _1671  and  _1672
REMARK  778  A    between atoms: _1672  and  _1673
REMARK  779  A    between atoms: _1673  and  _1674
REMARK                            x       y       z     vdW  Elec       q    Type
REMARK                         _______ _______ _______ _____ _____    ______ ____
ROOT
ATOM      1  C   UNL     1       0.525  26.975   9.269  0.00  0.00    +0.031 C 
ATOM      2  C   UNL     1       1.459  25.999   8.646  0.00  0.00    -0.019 C 
ATOM      3  C   UNL     1       1.762  25.864   7.293  0.00  0.00    +0.082 C 
ENDROOT
BRANCH   3   4
ATOM      4  C   UNL     1       2.596  24.664   6.890  0.00  0.00    +0.388 C 
ATOM      5  O   UNL     1       3.833  24.813   6.766  0.00  0.00    -0.241 OA
ATOM      6  O   UNL     1       2.019  23.563   6.741  0.00  0.00    -0.241 OA
ENDBRANCH   3   4
TORSDOF 1
REMARK  Name = /Users/mlugowska/PhD/ML_residence_time_prediction/protein_files/5NYH_protein.pdb
REMARK  779 active torsions:
REMARK  status: ('A' for Active; 'I' for Inactive)
REMARK    1  A    between atoms: _2  and  _3
REMARK    2  A    between atoms: _2  and  _5
REMARK    3  A    between atoms: _5  and  _6
REMARK    4  A    between atoms: _6  and  _7
REMARK    5  A    between atoms: _10  and  _11
REMARK    6  A    between atoms: _11  and  _12
REMARK    7  A    between atoms: _11  and  _14
REMARK    8  A    between atoms: _17  and  _18
REMARK    9  A    between atoms: _18  and  _19
REMARK   10  A    between atoms: _18  and  _21
REMARK   11  A    between atoms: _21  and  _22
REMARK   12  A    between atoms: _22  and  _23
REMARK   13  A    between atoms: _26  and  _27
REMARK   14  A    between atoms: _27  and  _28
REMARK   15  A    between atoms: _27  and  _30
REMARK   16  A    between atoms: _33  and  _34
REMARK   17  A    between atoms: _34  and  _35
REMARK   18  A    between atoms: _34  and  _37
REMARK   19  A    between atoms: _37  and  _38
REMARK   20  A    between atoms: _44  and  _45
REMARK   21  A    between atoms: _45  and  _46
REMARK   22  A    between atoms: _49  and  _50
REMARK   23  A    between atoms: _50  and  _51
REMARK   24  A    between atoms: _50  and  _53
REMARK   25  A    between atoms: _53  and  _54
REMARK   26  A    between atoms: _60  and  _61
REMARK   27  A    between atoms: _61  and  _62
REMARK   28  A    between atoms: _61  and  _64
REMARK   29  A    between atoms: _64  and  _65
REMARK   30  A    between atoms: _65  and  _66
REMARK   31  A    between atoms: _69  and  _70
REMARK   32  A    between atoms: _70  and  _71
REMARK   33  A    between atoms: _74  and  _75
REMARK   34  A    between atoms: _75  and  _76
REMARK   35  A    between atoms: _75  and  _78
REMARK   36  A    between atoms: _78  and  _79
REMARK   37  A    between atoms: _79  and  _80
REMARK   38  A    between atoms: _83  and  _84
REMARK   39  A    between atoms: _84  and  _85
REMARK   40  A    between atoms: _84  and  _87
REMARK   41  A    between atoms: _87  and  _88
REMARK   42  A    between atoms: _91  and  _92
REMARK   43  A    between atoms: _92  and  _93
REMARK   44  A    between atoms: _96  and  _97
REMARK   45  A    between atoms: _97  and  _98
REMARK   46  A    between atoms: _97  and  _100
REMARK   47  A    between atoms: _100  and  _101
REMARK   48  A    between atoms: _101  and  _102
REMARK   49  A    between atoms: _105  and  _106
REMARK   50  A    between atoms: _106  and  _107
REMARK   51  A    between atoms: _106  and  _109
REMARK   52  A    between atoms: _109  and  _110
REMARK   53  A    between atoms: _113  and  _114
REMARK   54  A    between atoms: _114  and  _115
REMARK   55  A    between atoms: _114  and  _117
REMARK   56  A    between atoms: _117  and  _118
REMARK   57  A    between atoms: _118  and  _119
REMARK   58  A    between atoms: _121  and  _122
REMARK   59  A    between atoms: _122  and  _123
REMARK   60  A    between atoms: _122  and  _125
REMARK   61  A    between atoms: _127  and  _128
REMARK   62  A    between atoms: _128  and  _129
REMARK   63  A    between atoms: _128  and  _131
REMARK   64  A    between atoms: _131  and  _132
REMARK   65  A    between atoms: _135  and  _136
REMARK   66  A    between atoms: _136  and  _137
REMARK   67  A    between atoms: _136  and  _139
REMARK   68  A    between atoms: _139  and  _140
REMARK   69  A    between atoms: _143  and  _144
REMARK   70  A    between atoms: _144  and  _145
REMARK   71  A    between atoms: _144  and  _147
REMARK   72  A    between atoms: _147  and  _148
REMARK   73  A    between atoms: _151  and  _152
REMARK   74  A    between atoms: _152  and  _153
REMARK   75  A    between atoms: _152  and  _155
REMARK   76  A    between atoms: _155  and  _156
REMARK   77  A    between atoms: _159  and  _160
REMARK   78  A    between atoms: _160  and  _161
REMARK   79  A    between atoms: _160  and  _163
REMARK   80  A    between atoms: _166  and  _167
REMARK   81  A    between atoms: _167  and  _168
REMARK   82  A    between atoms: _167  and  _170
REMARK   83  A    between atoms: _170  and  _171
REMARK   84  A    between atoms: _177  and  _178
REMARK   85  A    between atoms: _178  and  _179
REMARK   86  A    between atoms: _178  and  _181
REMARK   87  A    between atoms: _181  and  _182
REMARK   88  A    between atoms: _189  and  _190
REMARK   89  A    between atoms: _190  and  _191
REMARK   90  A    between atoms: _190  and  _193
REMARK   91  A    between atoms: _195  and  _196
REMARK   92  A    between atoms: _196  and  _197
REMARK   93  A    between atoms: _196  and  _199
REMARK   94  A    between atoms: _199  and  _200
REMARK   95  A    between atoms: _203  and  _204
REMARK   96  A    between atoms: _204  and  _205
REMARK   97  A    between atoms: _204  and  _207
REMARK   98  A    between atoms: _207  and  _208
REMARK   99  A    between atoms: _208  and  _209
REMARK  100  A    between atoms: _209  and  _210
REMARK  101  A    between atoms: _212  and  _213
REMARK  102  A    between atoms: _213  and  _214
REMARK  103  A    between atoms: _213  and  _216
REMARK  104  A    between atoms: _216  and  _217
REMARK  105  A    between atoms: _217  and  _218
REMARK  106  A    between atoms: _221  and  _222
REMARK  107  A    between atoms: _222  and  _223
REMARK  108  A    between atoms: _222  and  _225
REMARK  109  A    between atoms: _225  and  _226
REMARK  110  A    between atoms: _229  and  _230
REMARK  111  A    between atoms: _230  and  _231
REMARK  112  A    between atoms: _230  and  _233
REMARK  113  A    between atoms: _233  and  _234
REMARK  114  A    between atoms: _240  and  _241
REMARK  115  A    between atoms: _241  and  _242
REMARK  116  A    between atoms: _241  and  _244
REMARK  117  A    between atoms: _244  and  _245
REMARK  118  A    between atoms: _248  and  _249
REMARK  119  A    between atoms: _249  and  _250
REMARK  120  A    between atoms: _249  and  _252
REMARK  121  A    between atoms: _252  and  _253
REMARK  122  A    between atoms: _253  and  _254
REMARK  123  A    between atoms: _254  and  _255
REMARK  124  A    between atoms: _259  and  _260
REMARK  125  A    between atoms: _260  and  _261
REMARK  126  A    between atoms: _260  and  _263
REMARK  127  A    between atoms: _263  and  _264
REMARK  128  A    between atoms: _264  and  _265
REMARK  129  A    between atoms: _268  and  _269
REMARK  130  A    between atoms: _269  and  _270
REMARK  131  A    between atoms: _269  and  _272
REMARK  132  A    between atoms: _272  and  _273
REMARK  133  A    between atoms: _276  and  _277
REMARK  134  A    between atoms: _277  and  _278
REMARK  135  A    between atoms: _277  and  _280
REMARK  136  A    between atoms: _280  and  _281
REMARK  137  A    between atoms: _284  and  _285
REMARK  138  A    between atoms: _285  and  _286
REMARK  139  A    between atoms: _285  and  _288
REMARK  140  A    between atoms: _290  and  _291
REMARK  141  A    between atoms: _291  and  _292
REMARK  142  A    between atoms: _291  and  _294
REMARK  143  A    between atoms: _294  and  _295
REMARK  144  A    between atoms: _298  and  _299
REMARK  145  A    between atoms: _299  and  _300
REMARK  146  A    between atoms: _299  and  _302
REMARK  147  A    between atoms: _304  and  _305
REMARK  148  A    between atoms: _305  and  _306
REMARK  149  A    between atoms: _305  and  _308
REMARK  150  A    between atoms: _310  and  _311
REMARK  151  A    between atoms: _311  and  _312
REMARK  152  A    between atoms: _311  and  _314
REMARK  153  A    between atoms: _314  and  _315
REMARK  154  A    between atoms: _318  and  _319
REMARK  155  A    between atoms: _319  and  _320
REMARK  156  A    between atoms: _323  and  _324
REMARK  157  A    between atoms: _324  and  _325
REMARK  158  A    between atoms: _324  and  _327
REMARK  159  A    between atoms: _327  and  _328
REMARK  160  A    between atoms: _331  and  _332
REMARK  161  A    between atoms: _332  and  _333
REMARK  162  A    between atoms: _332  and  _335
REMARK  163  A    between atoms: _335  and  _336
REMARK  164  A    between atoms: _339  and  _340
REMARK  165  A    between atoms: _340  and  _341
REMARK  166  A    between atoms: _340  and  _343
REMARK  167  A    between atoms: _343  and  _344
REMARK  168  A    between atoms: _344  and  _345
REMARK  169  A    between atoms: _345  and  _346
REMARK  170  A    between atoms: _348  and  _349
REMARK  171  A    between atoms: _349  and  _350
REMARK  172  A    between atoms: _349  and  _352
REMARK  173  A    between atoms: _352  and  _353
REMARK  174  A    between atoms: _356  and  _357
REMARK  175  A    between atoms: _357  and  _358
REMARK  176  A    between atoms: _357  and  _360
REMARK  177  A    between atoms: _360  and  _361
REMARK  178  A    between atoms: _361  and  _362
REMARK  179  A    between atoms: _362  and  _363
REMARK  180  A    between atoms: _367  and  _368
REMARK  181  A    between atoms: _368  and  _369
REMARK  182  A    between atoms: _368  and  _371
REMARK  183  A    between atoms: _371  and  _372
REMARK  184  A    between atoms: _379  and  _380
REMARK  185  A    between atoms: _380  and  _381
REMARK  186  A    between atoms: _380  and  _383
REMARK  187  A    between atoms: _383  and  _384
REMARK  188  A    between atoms: _384  and  _385
REMARK  189  A    between atoms: _388  and  _389
REMARK  190  A    between atoms: _389  and  _390
REMARK  191  A    between atoms: _389  and  _392
REMARK  192  A    between atoms: _394  and  _395
REMARK  193  A    between atoms: _395  and  _396
REMARK  194  A    between atoms: _395  and  _398
REMARK  195  A    between atoms: _398  and  _399
REMARK  196  A    between atoms: _402  and  _403
REMARK  197  A    between atoms: _403  and  _404
REMARK  198  A    between atoms: _403  and  _406
REMARK  199  A    between atoms: _409  and  _410
REMARK  200  A    between atoms: _410  and  _411
REMARK  201  A    between atoms: _410  and  _413
REMARK  202  A    between atoms: _413  and  _414
REMARK  203  A    between atoms: _418  and  _419
REMARK  204  A    between atoms: _424  and  _425
REMARK  205  A    between atoms: _425  and  _426
REMARK  206  A    between atoms: _425  and  _428
REMARK  207  A    between atoms: _430  and  _431
REMARK  208  A    between atoms: _431  and  _432
REMARK  209  A    between atoms: _431  and  _434
REMARK  210  A    between atoms: _434  and  _435
REMARK  211  A    between atoms: _435  and  _436
REMARK  212  A    between atoms: _436  and  _437
REMARK  213  A    between atoms: _439  and  _440
REMARK  214  A    between atoms: _440  and  _441
REMARK  215  A    between atoms: _440  and  _443
REMARK  216  A    between atoms: _443  and  _444
REMARK  217  A    between atoms: _447  and  _448
REMARK  218  A    between atoms: _448  and  _449
REMARK  219  A    between atoms: _448  and  _451
REMARK  220  A    between atoms: _451  and  _452
REMARK  221  A    between atoms: _455  and  _456
REMARK  222  A    between atoms: _456  and  _457
REMARK  223  A    between atoms: _456  and  _459
REMARK  224  A    between atoms: _461  and  _462
REMARK  225  A    between atoms: _462  and  _463
REMARK  226  A    between atoms: _465  and  _466
REMARK  227  A    between atoms: _466  and  _467
REMARK  228  A    between atoms: _466  and  _469
REMARK  229  A    between atoms: _469  and  _470
REMARK  230  A    between atoms: _470  and  _471
REMARK  231  A    between atoms: _471  and  _472
REMARK  232  A    between atoms: _474  and  _475
REMARK  233  A    between atoms: _475  and  _476
REMARK  234  A    between atoms: _475  and  _478
REMARK  235  A    between atoms: _478  and  _479
REMARK  236  A    between atoms: _479  and  _480
REMARK  237  A    between atoms: _483  and  _484
REMARK  238  A    between atoms: _484  and  _485
REMARK  239  A    between atoms: _484  and  _487
REMARK  240  A    between atoms: _487  and  _488
REMARK  241  A    between atoms: _491  and  _492
REMARK  242  A    between atoms: _492  and  _493
REMARK  243  A    between atoms: _492  and  _495
REMARK  244  A    between atoms: _495  and  _496
REMARK  245  A    between atoms: _501  and  _502
REMARK  246  A    between atoms: _502  and  _503
REMARK  247  A    between atoms: _502  and  _505
REMARK  248  A    between atoms: _505  and  _506
REMARK  249  A    between atoms: _509  and  _510
REMARK  250  A    between atoms: _510  and  _511
REMARK  251  A    between atoms: _510  and  _513
REMARK  252  A    between atoms: _513  and  _514
REMARK  253  A    between atoms: _517  and  _518
REMARK  254  A    between atoms: _518  and  _519
REMARK  255  A    between atoms: _518  and  _521
REMARK  256  A    between atoms: _521  and  _522
REMARK  257  A    between atoms: _525  and  _526
REMARK  258  A    between atoms: _526  and  _527
REMARK  259  A    between atoms: _526  and  _529
REMARK  260  A    between atoms: _529  and  _530
REMARK  261  A    between atoms: _534  and  _535
REMARK  262  A    between atoms: _540  and  _541
REMARK  263  A    between atoms: _541  and  _542
REMARK  264  A    between atoms: _541  and  _544
REMARK  265  A    between atoms: _544  and  _545
REMARK  266  A    between atoms: _548  and  _549
REMARK  267  A    between atoms: _549  and  _552
REMARK  268  A    between atoms: _552  and  _553
REMARK  269  A    between atoms: _553  and  _554
REMARK  270  A    between atoms: _554  and  _555
REMARK  271  A    between atoms: _568  and  _569
REMARK  272  A    between atoms: _576  and  _577
REMARK  273  A    between atoms: _576  and  _579
REMARK  274  A    between atoms: _579  and  _580
REMARK  275  A    between atoms: _583  and  _584
REMARK  276  A    between atoms: _584  and  _585
REMARK  277  A    between atoms: _584  and  _587
REMARK  278  A    between atoms: _587  and  _588
REMARK  279  A    between atoms: _588  and  _589
REMARK  280  A    between atoms: _589  and  _590
REMARK  281  A    between atoms: _594  and  _595
REMARK  282  A    between atoms: _595  and  _596
REMARK  283  A    between atoms: _595  and  _598
REMARK  284  A    between atoms: _601  and  _602
REMARK  285  A    between atoms: _602  and  _603
REMARK  286  A    between atoms: _602  and  _605
REMARK  287  A    between atoms: _605  and  _606
REMARK  288  A    between atoms: _609  and  _610
REMARK  289  A    between atoms: _610  and  _611
REMARK  290  A    between atoms: _610  and  _613
REMARK  291  A    between atoms: _616  and  _617
REMARK  292  A    between atoms: _617  and  _618
REMARK  293  A    between atoms: _617  and  _620
REMARK  294  A    between atoms: _620  and  _621
REMARK  295  A    between atoms: _624  and  _625
REMARK  296  A    between atoms: _625  and  _626
REMARK  297  A    between atoms: _625  and  _628
REMARK  298  A    between atoms: _631  and  _632
REMARK  299  A    between atoms: _632  and  _633
REMARK  300  A    between atoms: _632  and  _635
REMARK  301  A    between atoms: _635  and  _636
REMARK  302  A    between atoms: _639  and  _640
REMARK  303  A    between atoms: _640  and  _641
REMARK  304  A    between atoms: _640  and  _643
REMARK  305  A    between atoms: _646  and  _647
REMARK  306  A    between atoms: _647  and  _648
REMARK  307  A    between atoms: _650  and  _651
REMARK  308  A    between atoms: _651  and  _652
REMARK  309  A    between atoms: _651  and  _654
REMARK  310  A    between atoms: _654  and  _655
REMARK  311  A    between atoms: _658  and  _659
REMARK  312  A    between atoms: _659  and  _660
REMARK  313  A    between atoms: _662  and  _663
REMARK  314  A    between atoms: _663  and  _664
REMARK  315  A    between atoms: _663  and  _666
REMARK  316  A    between atoms: _666  and  _667
REMARK  317  A    between atoms: _667  and  _668
REMARK  318  A    between atoms: _670  and  _671
REMARK  319  A    between atoms: _671  and  _672
REMARK  320  A    between atoms: _671  and  _674
REMARK  321  A    between atoms: _677  and  _678
REMARK  322  A    between atoms: _678  and  _679
REMARK  323  A    between atoms: _678  and  _681
REMARK  324  A    between atoms: _681  and  _682
REMARK  325  A    between atoms: _682  and  _683
REMARK  326  A    between atoms: _683  and  _684
REMARK  327  A    between atoms: _686  and  _687
REMARK  328  A    between atoms: _687  and  _688
REMARK  329  A    between atoms: _691  and  _692
REMARK  330  A    between atoms: _692  and  _693
REMARK  331  A    between atoms: _692  and  _695
REMARK  332  A    between atoms: _695  and  _696
REMARK  333  A    between atoms: _699  and  _700
REMARK  334  A    between atoms: _700  and  _701
REMARK  335  A    between atoms: _700  and  _703
REMARK  336  A    between atoms: _703  and  _704
REMARK  337  A    between atoms: _707  and  _708
REMARK  338  A    between atoms: _708  and  _709
REMARK  339  A    between atoms: _708  and  _711
REMARK  340  A    between atoms: _711  and  _712
REMARK  341  A    between atoms: _715  and  _716
REMARK  342  A    between atoms: _716  and  _717
REMARK  343  A    between atoms: _716  and  _719
REMARK  344  A    between atoms: _719  and  _720
REMARK  345  A    between atoms: _723  and  _724
REMARK  346  A    between atoms: _724  and  _725
REMARK  347  A    between atoms: _724  and  _727
REMARK  348  A    between atoms: _727  and  _728
REMARK  349  A    between atoms: _731  and  _732
REMARK  350  A    between atoms: _732  and  _733
REMARK  351  A    between atoms: _732  and  _735
REMARK  352  A    between atoms: _735  and  _736
REMARK  353  A    between atoms: _739  and  _740
REMARK  354  A    between atoms: _740  and  _741
REMARK  355  A    between atoms: _743  and  _744
REMARK  356  A    between atoms: _744  and  _745
REMARK  357  A    between atoms: _744  and  _747
REMARK  358  A    between atoms: _750  and  _751
REMARK  359  A    between atoms: _751  and  _752
REMARK  360  A    between atoms: _751  and  _754
REMARK  361  A    between atoms: _754  and  _755
REMARK  362  A    between atoms: _758  and  _759
REMARK  363  A    between atoms: _759  and  _760
REMARK  364  A    between atoms: _763  and  _764
REMARK  365  A    between atoms: _764  and  _765
REMARK  366  A    between atoms: _764  and  _767
REMARK  367  A    between atoms: _767  and  _768
REMARK  368  A    between atoms: _768  and  _769
REMARK  369  A    between atoms: _769  and  _770
REMARK  370  A    between atoms: _772  and  _773
REMARK  371  A    between atoms: _773  and  _774
REMARK  372  A    between atoms: _773  and  _776
REMARK  373  A    between atoms: _778  and  _779
REMARK  374  A    between atoms: _779  and  _780
REMARK  375  A    between atoms: _782  and  _783
REMARK  376  A    between atoms: _783  and  _784
REMARK  377  A    between atoms: _783  and  _786
REMARK  378  A    between atoms: _789  and  _790
REMARK  379  A    between atoms: _790  and  _791
REMARK  380  A    between atoms: _790  and  _793
REMARK  381  A    between atoms: _793  and  _794
REMARK  382  A    between atoms: _794  and  _795
REMARK  383  A    between atoms: _795  and  _796
REMARK  384  A    between atoms: _798  and  _799
REMARK  385  A    between atoms: _799  and  _800
REMARK  386  A    between atoms: _803  and  _804
REMARK  387  A    between atoms: _804  and  _805
REMARK  388  A    between atoms: _804  and  _807
REMARK  389  A    between atoms: _807  and  _808
REMARK  390  A    between atoms: _814  and  _815
REMARK  391  A    between atoms: _815  and  _816
REMARK  392  A    between atoms: _815  and  _818
REMARK  393  A    between atoms: _818  and  _819
REMARK  394  A    between atoms: _819  and  _820
REMARK  395  A    between atoms: _822  and  _823
REMARK  396  A    between atoms: _823  and  _824
REMARK  397  A    between atoms: _823  and  _826
REMARK  398  A    between atoms: _826  and  _827
REMARK  399  A    between atoms: _827  and  _828
REMARK  400  A    between atoms: _831  and  _832
REMARK  401  A    between atoms: _832  and  _833
REMARK  402  A    between atoms: _836  and  _837
REMARK  403  A    between atoms: _837  and  _838
REMARK  404  A    between atoms: _837  and  _840
REMARK  405  A    between atoms: _840  and  _841
REMARK  406  A    between atoms: _844  and  _845
REMARK  407  A    between atoms: _845  and  _846
REMARK  408  A    between atoms: _845  and  _848
REMARK  409  A    between atoms: _848  and  _849
REMARK  410  A    between atoms: _849  and  _850
REMARK  411  A    between atoms: _853  and  _854
REMARK  412  A    between atoms: _854  and  _855
REMARK  413  A    between atoms: _858  and  _859
REMARK  414  A    between atoms: _859  and  _860
REMARK  415  A    between atoms: _862  and  _863
REMARK  416  A    between atoms: _863  and  _864
REMARK  417  A    between atoms: _867  and  _868
REMARK  418  A    between atoms: _868  and  _869
REMARK  419  A    between atoms: _868  and  _871
REMARK  420  A    between atoms: _871  and  _872
REMARK  421  A    between atoms: _875  and  _876
REMARK  422  A    between atoms: _876  and  _877
REMARK  423  A    between atoms: _876  and  _879
REMARK  424  A    between atoms: _879  and  _880
REMARK  425  A    between atoms: _883  and  _884
REMARK  426  A    between atoms: _884  and  _887
REMARK  427  A    between atoms: _906  and  _907
REMARK  428  A    between atoms: _906  and  _909
REMARK  429  A    between atoms: _909  and  _910
REMARK  430  A    between atoms: _913  and  _914
REMARK  431  A    between atoms: _914  and  _915
REMARK  432  A    between atoms: _917  and  _918
REMARK  433  A    between atoms: _918  and  _919
REMARK  434  A    between atoms: _918  and  _921
REMARK  435  A    between atoms: _921  and  _922
REMARK  436  A    between atoms: _922  and  _923
REMARK  437  A    between atoms: _926  and  _927
REMARK  438  A    between atoms: _927  and  _928
REMARK  439  A    between atoms: _927  and  _930
REMARK  440  A    between atoms: _930  and  _931
REMARK  441  A    between atoms: _937  and  _938
REMARK  442  A    between atoms: _938  and  _939
REMARK  443  A    between atoms: _941  and  _942
REMARK  444  A    between atoms: _942  and  _943
REMARK  445  A    between atoms: _942  and  _945
REMARK  446  A    between atoms: _948  and  _949
REMARK  447  A    between atoms: _949  and  _950
REMARK  448  A    between atoms: _952  and  _953
REMARK  449  A    between atoms: _953  and  _954
REMARK  450  A    between atoms: _953  and  _956
REMARK  451  A    between atoms: _956  and  _957
REMARK  452  A    between atoms: _963  and  _964
REMARK  453  A    between atoms: _964  and  _965
REMARK  454  A    between atoms: _964  and  _967
REMARK  455  A    between atoms: _967  and  _968
REMARK  456  A    between atoms: _975  and  _976
REMARK  457  A    between atoms: _976  and  _977
REMARK  458  A    between atoms: _976  and  _979
REMARK  459  A    between atoms: _981  and  _982
REMARK  460  A    between atoms: _982  and  _983
REMARK  461  A    between atoms: _986  and  _987
REMARK  462  A    between atoms: _987  and  _988
REMARK  463  A    between atoms: _987  and  _990
REMARK  464  A    between atoms: _990  and  _991
REMARK  465  A    between atoms: _998  and  _999
REMARK  466  A    between atoms: _999  and  _1000
REMARK  467  A    between atoms: _999  and  _1002
REMARK  468  A    between atoms: _1002  and  _1003
REMARK  469  A    between atoms: _1006  and  _1007
REMARK  470  A    between atoms: _1007  and  _1008
REMARK  471  A    between atoms: _1007  and  _1010
REMARK  472  A    between atoms: _1013  and  _1014
REMARK  473  A    between atoms: _1014  and  _1015
REMARK  474  A    between atoms: _1018  and  _1019
REMARK  475  A    between atoms: _1019  and  _1020
REMARK  476  A    between atoms: _1019  and  _1022
REMARK  477  A    between atoms: _1023  and  _1024
REMARK  478  A    between atoms: _1027  and  _1028
REMARK  479  A    between atoms: _1028  and  _1029
REMARK  480  A    between atoms: _1028  and  _1031
REMARK  481  A    between atoms: _1031  and  _1032
REMARK  482  A    between atoms: _1032  and  _1033
REMARK  483  A    between atoms: _1033  and  _1034
REMARK  484  A    between atoms: _1036  and  _1037
REMARK  485  A    between atoms: _1037  and  _1038
REMARK  486  A    between atoms: _1037  and  _1040
REMARK  487  A    between atoms: _1043  and  _1044
REMARK  488  A    between atoms: _1044  and  _1045
REMARK  489  A    between atoms: _1044  and  _1047
REMARK  490  A    between atoms: _1050  and  _1051
REMARK  491  A    between atoms: _1051  and  _1052
REMARK  492  A    between atoms: _1051  and  _1054
REMARK  493  A    between atoms: _1057  and  _1058
REMARK  494  A    between atoms: _1058  and  _1059
REMARK  495  A    between atoms: _1058  and  _1061
REMARK  496  A    between atoms: _1061  and  _1062
REMARK  497  A    between atoms: _1065  and  _1066
REMARK  498  A    between atoms: _1066  and  _1067
REMARK  499  A    between atoms: _1066  and  _1069
REMARK  500  A    between atoms: _1072  and  _1073
REMARK  501  A    between atoms: _1073  and  _1074
REMARK  502  A    between atoms: _1073  and  _1076
REMARK  503  A    between atoms: _1076  and  _1077
REMARK  504  A    between atoms: _1077  and  _1078
REMARK  505  A    between atoms: _1078  and  _1079
REMARK  506  A    between atoms: _1081  and  _1082
REMARK  507  A    between atoms: _1082  and  _1083
REMARK  508  A    between atoms: _1082  and  _1085
REMARK  509  A    between atoms: _1085  and  _1086
REMARK  510  A    between atoms: _1091  and  _1092
REMARK  511  A    between atoms: _1092  and  _1093
REMARK  512  A    between atoms: _1092  and  _1095
REMARK  513  A    between atoms: _1095  and  _1096
REMARK  514  A    between atoms: _1099  and  _1100
REMARK  515  A    between atoms: _1100  and  _1101
REMARK  516  A    between atoms: _1100  and  _1103
REMARK  517  A    between atoms: _1103  and  _1104
REMARK  518  A    between atoms: _1107  and  _1108
REMARK  519  A    between atoms: _1108  and  _1111
REMARK  520  A    between atoms: _1111  and  _1112
REMARK  521  A    between atoms: _1125  and  _1127
REMARK  522  A    between atoms: _1134  and  _1135
REMARK  523  A    between atoms: _1134  and  _1137
REMARK  524  A    between atoms: _1137  and  _1138
REMARK  525  A    between atoms: _1138  and  _1139
REMARK  526  A    between atoms: _1142  and  _1143
REMARK  527  A    between atoms: _1143  and  _1144
REMARK  528  A    between atoms: _1143  and  _1146
REMARK  529  A    between atoms: _1146  and  _1147
REMARK  530  A    between atoms: _1154  and  _1155
REMARK  531  A    between atoms: _1155  and  _1156
REMARK  532  A    between atoms: _1159  and  _1160
REMARK  533  A    between atoms: _1160  and  _1161
REMARK  534  A    between atoms: _1160  and  _1163
REMARK  535  A    between atoms: _1163  and  _1164
REMARK  536  A    between atoms: _1173  and  _1174
REMARK  537  A    between atoms: _1174  and  _1175
REMARK  538  A    between atoms: _1174  and  _1177
REMARK  539  A    between atoms: _1177  and  _1178
REMARK  540  A    between atoms: _1178  and  _1179
REMARK  541  A    between atoms: _1182  and  _1183
REMARK  542  A    between atoms: _1183  and  _1184
REMARK  543  A    between atoms: _1183  and  _1186
REMARK  544  A    between atoms: _1188  and  _1189
REMARK  545  A    between atoms: _1189  and  _1190
REMARK  546  A    between atoms: _1189  and  _1192
REMARK  547  A    between atoms: _1194  and  _1195
REMARK  548  A    between atoms: _1195  and  _1196
REMARK  549  A    between atoms: _1199  and  _1200
REMARK  550  A    between atoms: _1200  and  _1201
REMARK  551  A    between atoms: _1203  and  _1204
REMARK  552  A    between atoms: _1204  and  _1205
REMARK  553  A    between atoms: _1207  and  _1208
REMARK  554  A    between atoms: _1208  and  _1209
REMARK  555  A    between atoms: _1208  and  _1211
REMARK  556  A    between atoms: _1213  and  _1214
REMARK  557  A    between atoms: _1214  and  _1215
REMARK  558  A    between atoms: _1214  and  _1217
REMARK  559  A    between atoms: _1217  and  _1218
REMARK  560  A    between atoms: _1224  and  _1225
REMARK  561  A    between atoms: _1225  and  _1226
REMARK  562  A    between atoms: _1225  and  _1228
REMARK  563  A    between atoms: _1231  and  _1232
REMARK  564  A    between atoms: _1232  and  _1233
REMARK  565  A    between atoms: _1232  and  _1235
REMARK  566  A    between atoms: _1238  and  _1239
REMARK  567  A    between atoms: _1239  and  _1240
REMARK  568  A    between atoms: _1239  and  _1242
REMARK  569  A    between atoms: _1242  and  _1243
REMARK  570  A    between atoms: _1243  and  _1244
REMARK  571  A    between atoms: _1244  and  _1245
REMARK  572  A    between atoms: _1249  and  _1250
REMARK  573  A    between atoms: _1250  and  _1251
REMARK  574  A    between atoms: _1250  and  _1253
REMARK  575  A    between atoms: _1256  and  _1257
REMARK  576  A    between atoms: _1257  and  _1258
REMARK  577  A    between atoms: _1257  and  _1260
REMARK  578  A    between atoms: _1260  and  _1261
REMARK  579  A    between atoms: _1264  and  _1265
REMARK  580  A    between atoms: _1265  and  _1266
REMARK  581  A    between atoms: _1265  and  _1268
REMARK  582  A    between atoms: _1271  and  _1272
REMARK  583  A    between atoms: _1272  and  _1273
REMARK  584  A    between atoms: _1275  and  _1276
REMARK  585  A    between atoms: _1276  and  _1277
REMARK  586  A    between atoms: _1276  and  _1279
REMARK  587  A    between atoms: _1279  and  _1280
REMARK  588  A    between atoms: _1280  and  _1281
REMARK  589  A    between atoms: _1285  and  _1286
REMARK  590  A    between atoms: _1291  and  _1293
REMARK  591  A    between atoms: _1298  and  _1299
REMARK  592  A    between atoms: _1299  and  _1301
REMARK  593  A    between atoms: _1300  and  _1301
REMARK  594  A    between atoms: _1304  and  _1305
REMARK  595  A    between atoms: _1305  and  _1306
REMARK  596  A    between atoms: _1308  and  _1309
REMARK  597  A    between atoms: _1309  and  _1310
REMARK  598  A    between atoms: _1309  and  _1312
REMARK  599  A    between atoms: _1312  and  _1313
REMARK  600  A    between atoms: _1313  and  _1314
REMARK  601  A    between atoms: _1314  and  _1315
REMARK  602  A    between atoms: _1319  and  _1320
REMARK  603  A    between atoms: _1320  and  _1321
REMARK  604  A    between atoms: _1323  and  _1324
REMARK  605  A    between atoms: _1324  and  _1325
REMARK  606  A    between atoms: _1324  and  _1327
REMARK  607  A    between atoms: _1330  and  _1331
REMARK  608  A    between atoms: _1331  and  _1332
REMARK  609  A    between atoms: _1331  and  _1334
REMARK  610  A    between atoms: _1334  and  _1335
REMARK  611  A    between atoms: _1335  and  _1336
REMARK  612  A    between atoms: _1336  and  _1337
REMARK  613  A    between atoms: _1339  and  _1340
REMARK  614  A    between atoms: _1340  and  _1341
REMARK  615  A    between atoms: _1340  and  _1343
REMARK  616  A    between atoms: _1346  and  _1347
REMARK  617  A    between atoms: _1347  and  _1348
REMARK  618  A    between atoms: _1347  and  _1350
REMARK  619  A    between atoms: _1350  and  _1351
REMARK  620  A    between atoms: _1354  and  _1355
REMARK  621  A    between atoms: _1355  and  _1356
REMARK  622  A    between atoms: _1355  and  _1358
REMARK  623  A    between atoms: _1358  and  _1359
REMARK  624  A    between atoms: _1362  and  _1363
REMARK  625  A    between atoms: _1363  and  _1364
REMARK  626  A    between atoms: _1363  and  _1366
REMARK  627  A    between atoms: _1366  and  _1367
REMARK  628  A    between atoms: _1372  and  _1373
REMARK  629  A    between atoms: _1373  and  _1374
REMARK  630  A    between atoms: _1373  and  _1376
REMARK  631  A    between atoms: _1376  and  _1377
REMARK  632  A    between atoms: _1380  and  _1381
REMARK  633  A    between atoms: _1381  and  _1382
REMARK  634  A    between atoms: _1381  and  _1384
REMARK  635  A    between atoms: _1384  and  _1385
REMARK  636  A    between atoms: _1385  and  _1386
REMARK  637  A    between atoms: _1386  and  _1387
REMARK  638  A    between atoms: _1389  and  _1390
REMARK  639  A    between atoms: _1390  and  _1391
REMARK  640  A    between atoms: _1390  and  _1393
REMARK  641  A    between atoms: _1393  and  _1394
REMARK  642  A    between atoms: _1394  and  _1395
REMARK  643  A    between atoms: _1398  and  _1399
REMARK  644  A    between atoms: _1399  and  _1400
REMARK  645  A    between atoms: _1399  and  _1402
REMARK  646  A    between atoms: _1402  and  _1403
REMARK  647  A    between atoms: _1406  and  _1407
REMARK  648  A    between atoms: _1407  and  _1408
REMARK  649  A    between atoms: _1407  and  _1410
REMARK  650  A    between atoms: _1410  and  _1411
REMARK  651  A    between atoms: _1411  and  _1412
REMARK  652  A    between atoms: _1415  and  _1416
REMARK  653  A    between atoms: _1416  and  _1417
REMARK  654  A    between atoms: _1416  and  _1419
REMARK  655  A    between atoms: _1422  and  _1423
REMARK  656  A    between atoms: _1423  and  _1424
REMARK  657  A    between atoms: _1423  and  _1426
REMARK  658  A    between atoms: _1426  and  _1427
REMARK  659  A    between atoms: _1427  and  _1428
REMARK  660  A    between atoms: _1431  and  _1432
REMARK  661  A    between atoms: _1432  and  _1433
REMARK  662  A    between atoms: _1432  and  _1435
REMARK  663  A    between atoms: _1435  and  _1436
REMARK  664  A    between atoms: _1443  and  _1444
REMARK  665  A    between atoms: _1444  and  _1445
REMARK  666  A    between atoms: _1444  and  _1447
REMARK  667  A    between atoms: _1447  and  _1448
REMARK  668  A    between atoms: _1451  and  _1452
REMARK  669  A    between atoms: _1452  and  _1453
REMARK  670  A    between atoms: _1452  and  _1455
REMARK  671  A    between atoms: _1455  and  _1456
REMARK  672  A    between atoms: _1456  and  _1457
REMARK  673  A    between atoms: _1460  and  _1461
REMARK  674  A    between atoms: _1461  and  _1462
REMARK  675  A    between atoms: _1461  and  _1464
REMARK  676  A    between atoms: _1464  and  _1465
REMARK  677  A    between atoms: _1465  and  _1466
REMARK  678  A    between atoms: _1469  and  _1470
REMARK  679  A    between atoms: _1470  and  _1471
REMARK  680  A    between atoms: _1470  and  _1473
REMARK  681  A    between atoms: _1473  and  _1474
REMARK  682  A    between atoms: _1474  and  _1475
REMARK  683  A    between atoms: _1475  and  _1476
REMARK  684  A    between atoms: _1480  and  _1481
REMARK  685  A    between atoms: _1481  and  _1482
REMARK  686  A    between atoms: _1481  and  _1484
REMARK  687  A    between atoms: _1484  and  _1485
REMARK  688  A    between atoms: _1485  and  _1486
REMARK  689  A    between atoms: _1486  and  _1487
REMARK  690  A    between atoms: _1491  and  _1492
REMARK  691  A    between atoms: _1492  and  _1493
REMARK  692  A    between atoms: _1492  and  _1495
REMARK  693  A    between atoms: _1495  and  _1496
REMARK  694  A    between atoms: _1499  and  _1500
REMARK  695  A    between atoms: _1500  and  _1501
REMARK  696  A    between atoms: _1500  and  _1503
REMARK  697  A    between atoms: _1503  and  _1504
REMARK  698  A    between atoms: _1504  and  _1505
REMARK  699  A    between atoms: _1505  and  _1506
REMARK  700  A    between atoms: _1508  and  _1509
REMARK  701  A    between atoms: _1509  and  _1510
REMARK  702  A    between atoms: _1509  and  _1512
REMARK  703  A    between atoms: _1512  and  _1513
REMARK  704  A    between atoms: _1513  and  _1514
REMARK  705  A    between atoms: _1517  and  _1518
REMARK  706  A    between atoms: _1518  and  _1519
REMARK  707  A    between atoms: _1518  and  _1521
REMARK  708  A    between atoms: _1521  and  _1522
REMARK  709  A    between atoms: _1525  and  _1526
REMARK  710  A    between atoms: _1526  and  _1527
REMARK  711  A    between atoms: _1526  and  _1529
REMARK  712  A    between atoms: _1532  and  _1533
REMARK  713  A    between atoms: _1533  and  _1534
REMARK  714  A    between atoms: _1533  and  _1536
REMARK  715  A    between atoms: _1536  and  _1537
REMARK  716  A    between atoms: _1537  and  _1538
REMARK  717  A    between atoms: _1538  and  _1539
REMARK  718  A    between atoms: _1541  and  _1542
REMARK  719  A    between atoms: _1542  and  _1543
REMARK  720  A    between atoms: _1542  and  _1545
REMARK  721  A    between atoms: _1545  and  _1546
REMARK  722  A    between atoms: _1546  and  _1547
REMARK  723  A    between atoms: _1547  and  _1548
REMARK  724  A    between atoms: _1550  and  _1551
REMARK  725  A    between atoms: _1551  and  _1552
REMARK  726  A    between atoms: _1551  and  _1554
REMARK  727  A    between atoms: _1554  and  _1555
REMARK  728  A    between atoms: _1560  and  _1561
REMARK  729  A    between atoms: _1561  and  _1562
REMARK  730  A    between atoms: _1561  and  _1564
REMARK  731  A    between atoms: _1566  and  _1567
REMARK  732  A    between atoms: _1567  and  _1568
REMARK  733  A    between atoms: _1567  and  _1570
REMARK  734  A    between atoms: _1570  and  _1571
REMARK  735  A    between atoms: _1571  and  _1572
REMARK  736  A    between atoms: _1575  and  _1576
REMARK  737  A    between atoms: _1576  and  _1577
REMARK  738  A    between atoms: _1576  and  _1579
REMARK  739  A    between atoms: _1579  and  _1580
REMARK  740  A    between atoms: _1586  and  _1587
REMARK  741  A    between atoms: _1587  and  _1588
REMARK  742  A    between atoms: _1587  and  _1590
REMARK  743  A    between atoms: _1590  and  _1591
REMARK  744  A    between atoms: _1594  and  _1595
REMARK  745  A    between atoms: _1595  and  _1596
REMARK  746  A    between atoms: _1598  and  _1599
REMARK  747  A    between atoms: _1599  and  _1600
REMARK  748  A    between atoms: _1599  and  _1602
REMARK  749  A    between atoms: _1602  and  _1603
REMARK  750  A    between atoms: _1611  and  _1612
REMARK  751  A    between atoms: _1617  and  _1618
REMARK  752  A    between atoms: _1618  and  _1619
REMARK  753  A    between atoms: _1618  and  _1621
REMARK  754  A    between atoms: _1621  and  _1622
REMARK  755  A    between atoms: _1625  and  _1626
REMARK  756  A    between atoms: _1626  and  _1627
REMARK  757  A    between atoms: _1626  and  _1629
REMARK  758  A    between atoms: _1632  and  _1633
REMARK  759  A    between atoms: _1633  and  _1634
REMARK  760  A    between atoms: _1633  and  _1636
REMARK  761  A    between atoms: _1636  and  _1637
REMARK  762  A    between atoms: _1640  and  _1641
REMARK  763  A    between atoms: _1641  and  _1642
REMARK  764  A    between atoms: _1641  and  _1644
REMARK  765  A    between atoms: _1644  and  _1645
REMARK  766  A    between atoms: _1651  and  _1652
REMARK  767  A    between atoms: _1652  and  _1653
REMARK  768  A    between atoms: _1652  and  _1655
REMARK  769  A    between atoms: _1658  and  _1659
REMARK  770  A    between atoms: _1659  and  _1660
REMARK  771  A    between atoms: _1659  and  _1662
REMARK  772  A    between atoms: _1662  and  _1663
REMARK  773  A    between atoms: _1663  and  _1664
REMARK  774  A    between atoms: _1667  and  _1668
REMARK  775  A    between atoms: _1668  and  _1669
REMARK  776  A    between atoms: _1668  and  _1671
REMARK  777  A    between atoms: _1671  and  _1672
REMARK  778  A    between atoms: _1672  and  _1673
REMARK  779  A    between atoms: _1673  and  _1674
REMARK                            x       y       z     vdW  Elec       q    Type
REMARK                         _______ _______ _______ _____ _____    ______ ____
ROOT
ATOM      1  C   UNL     1       0.266  26.729  10.769  0.00  0.00    +0.000 C 
ENDROOT
TORSDOF 0
REMARK  Name = /Users/mlugowska/PhD/ML_residence_time_prediction/protein_files/5NYH_protein.pdb
REMARK  779 active torsions:
REMARK  status: ('A' for Active; 'I' for Inactive)
REMARK    1  A    between atoms: _2  and  _3
REMARK    2  A    between atoms: _2  and  _5
REMARK    3  A    between atoms: _5  and  _6
REMARK    4  A    between atoms: _6  and  _7
REMARK    5  A    between atoms: _10  and  _11
REMARK    6  A    between atoms: _11  and  _12
REMARK    7  A    between atoms: _11  and  _14
REMARK    8  A    between atoms: _17  and  _18
REMARK    9  A    between atoms: _18  and  _19
REMARK   10  A    between atoms: _18  and  _21
REMARK   11  A    between atoms: _21  and  _22
REMARK   12  A    between atoms: _22  and  _23
REMARK   13  A    between atoms: _26  and  _27
REMARK   14  A    between atoms: _27  and  _28
REMARK   15  A    between atoms: _27  and  _30
REMARK   16  A    between atoms: _33  and  _34
REMARK   17  A    between atoms: _34  and  _35
REMARK   18  A    between atoms: _34  and  _37
REMARK   19  A    between atoms: _37  and  _38
REMARK   20  A    between atoms: _44  and  _45
REMARK   21  A    between atoms: _45  and  _46
REMARK   22  A    between atoms: _49  and  _50
REMARK   23  A    between atoms: _50  and  _51
REMARK   24  A    between atoms: _50  and  _53
REMARK   25  A    between atoms: _53  and  _54
REMARK   26  A    between atoms: _60  and  _61
REMARK   27  A    between atoms: _61  and  _62
REMARK   28  A    between atoms: _61  and  _64
REMARK   29  A    between atoms: _64  and  _65
REMARK   30  A    between atoms: _65  and  _66
REMARK   31  A    between atoms: _69  and  _70
REMARK   32  A    between atoms: _70  and  _71
REMARK   33  A    between atoms: _74  and  _75
REMARK   34  A    between atoms: _75  and  _76
REMARK   35  A    between atoms: _75  and  _78
REMARK   36  A    between atoms: _78  and  _79
REMARK   37  A    between atoms: _79  and  _80
REMARK   38  A    between atoms: _83  and  _84
REMARK   39  A    between atoms: _84  and  _85
REMARK   40  A    between atoms: _84  and  _87
REMARK   41  A    between atoms: _87  and  _88
REMARK   42  A    between atoms: _91  and  _92
REMARK   43  A    between atoms: _92  and  _93
REMARK   44  A    between atoms: _96  and  _97
REMARK   45  A    between atoms: _97  and  _98
REMARK   46  A    between atoms: _97  and  _100
REMARK   47  A    between atoms: _100  and  _101
REMARK   48  A    between atoms: _101  and  _102
REMARK   49  A    between atoms: _105  and  _106
REMARK   50  A    between atoms: _106  and  _107
REMARK   51  A    between atoms: _106  and  _109
REMARK   52  A    between atoms: _109  and  _110
REMARK   53  A    between atoms: _113  and  _114
REMARK   54  A    between atoms: _114  and  _115
REMARK   55  A    between atoms: _114  and  _117
REMARK   56  A    between atoms: _117  and  _118
REMARK   57  A    between atoms: _118  and  _119
REMARK   58  A    between atoms: _121  and  _122
REMARK   59  A    between atoms: _122  and  _123
REMARK   60  A    between atoms: _122  and  _125
REMARK   61  A    between atoms: _127  and  _128
REMARK   62  A    between atoms: _128  and  _129
REMARK   63  A    between atoms: _128  and  _131
REMARK   64  A    between atoms: _131  and  _132
REMARK   65  A    between atoms: _135  and  _136
REMARK   66  A    between atoms: _136  and  _137
REMARK   67  A    between atoms: _136  and  _139
REMARK   68  A    between atoms: _139  and  _140
REMARK   69  A    between atoms: _143  and  _144
REMARK   70  A    between atoms: _144  and  _145
REMARK   71  A    between atoms: _144  and  _147
REMARK   72  A    between atoms: _147  and  _148
REMARK   73  A    between atoms: _151  and  _152
REMARK   74  A    between atoms: _152  and  _153
REMARK   75  A    between atoms: _152  and  _155
REMARK   76  A    between atoms: _155  and  _156
REMARK   77  A    between atoms: _159  and  _160
REMARK   78  A    between atoms: _160  and  _161
REMARK   79  A    between atoms: _160  and  _163
REMARK   80  A    between atoms: _166  and  _167
REMARK   81  A    between atoms: _167  and  _168
REMARK   82  A    between atoms: _167  and  _170
REMARK   83  A    between atoms: _170  and  _171
REMARK   84  A    between atoms: _177  and  _178
REMARK   85  A    between atoms: _178  and  _179
REMARK   86  A    between atoms: _178  and  _181
REMARK   87  A    between atoms: _181  and  _182
REMARK   88  A    between atoms: _189  and  _190
REMARK   89  A    between atoms: _190  and  _191
REMARK   90  A    between atoms: _190  and  _193
REMARK   91  A    between atoms: _195  and  _196
REMARK   92  A    between atoms: _196  and  _197
REMARK   93  A    between atoms: _196  and  _199
REMARK   94  A    between atoms: _199  and  _200
REMARK   95  A    between atoms: _203  and  _204
REMARK   96  A    between atoms: _204  and  _205
REMARK   97  A    between atoms: _204  and  _207
REMARK   98  A    between atoms: _207  and  _208
REMARK   99  A    between atoms: _208  and  _209
REMARK  100  A    between atoms: _209  and  _210
REMARK  101  A    between atoms: _212  and  _213
REMARK  102  A    between atoms: _213  and  _214
REMARK  103  A    between atoms: _213  and  _216
REMARK  104  A    between atoms: _216  and  _217
REMARK  105  A    between atoms: _217  and  _218
REMARK  106  A    between atoms: _221  and  _222
REMARK  107  A    between atoms: _222  and  _223
REMARK  108  A    between atoms: _222  and  _225
REMARK  109  A    between atoms: _225  and  _226
REMARK  110  A    between atoms: _229  and  _230
REMARK  111  A    between atoms: _230  and  _231
REMARK  112  A    between atoms: _230  and  _233
REMARK  113  A    between atoms: _233  and  _234
REMARK  114  A    between atoms: _240  and  _241
REMARK  115  A    between atoms: _241  and  _242
REMARK  116  A    between atoms: _241  and  _244
REMARK  117  A    between atoms: _244  and  _245
REMARK  118  A    between atoms: _248  and  _249
REMARK  119  A    between atoms: _249  and  _250
REMARK  120  A    between atoms: _249  and  _252
REMARK  121  A    between atoms: _252  and  _253
REMARK  122  A    between atoms: _253  and  _254
REMARK  123  A    between atoms: _254  and  _255
REMARK  124  A    between atoms: _259  and  _260
REMARK  125  A    between atoms: _260  and  _261
REMARK  126  A    between atoms: _260  and  _263
REMARK  127  A    between atoms: _263  and  _264
REMARK  128  A    between atoms: _264  and  _265
REMARK  129  A    between atoms: _268  and  _269
REMARK  130  A    between atoms: _269  and  _270
REMARK  131  A    between atoms: _269  and  _272
REMARK  132  A    between atoms: _272  and  _273
REMARK  133  A    between atoms: _276  and  _277
REMARK  134  A    between atoms: _277  and  _278
REMARK  135  A    between atoms: _277  and  _280
REMARK  136  A    between atoms: _280  and  _281
REMARK  137  A    between atoms: _284  and  _285
REMARK  138  A    between atoms: _285  and  _286
REMARK  139  A    between atoms: _285  and  _288
REMARK  140  A    between atoms: _290  and  _291
REMARK  141  A    between atoms: _291  and  _292
REMARK  142  A    between atoms: _291  and  _294
REMARK  143  A    between atoms: _294  and  _295
REMARK  144  A    between atoms: _298  and  _299
REMARK  145  A    between atoms: _299  and  _300
REMARK  146  A    between atoms: _299  and  _302
REMARK  147  A    between atoms: _304  and  _305
REMARK  148  A    between atoms: _305  and  _306
REMARK  149  A    between atoms: _305  and  _308
REMARK  150  A    between atoms: _310  and  _311
REMARK  151  A    between atoms: _311  and  _312
REMARK  152  A    between atoms: _311  and  _314
REMARK  153  A    between atoms: _314  and  _315
REMARK  154  A    between atoms: _318  and  _319
REMARK  155  A    between atoms: _319  and  _320
REMARK  156  A    between atoms: _323  and  _324
REMARK  157  A    between atoms: _324  and  _325
REMARK  158  A    between atoms: _324  and  _327
REMARK  159  A    between atoms: _327  and  _328
REMARK  160  A    between atoms: _331  and  _332
REMARK  161  A    between atoms: _332  and  _333
REMARK  162  A    between atoms: _332  and  _335
REMARK  163  A    between atoms: _335  and  _336
REMARK  164  A    between atoms: _339  and  _340
REMARK  165  A    between atoms: _340  and  _341
REMARK  166  A    between atoms: _340  and  _343
REMARK  167  A    between atoms: _343  and  _344
REMARK  168  A    between atoms: _344  and  _345
REMARK  169  A    between atoms: _345  and  _346
REMARK  170  A    between atoms: _348  and  _349
REMARK  171  A    between atoms: _349  and  _350
REMARK  172  A    between atoms: _349  and  _352
REMARK  173  A    between atoms: _352  and  _353
REMARK  174  A    between atoms: _356  and  _357
REMARK  175  A    between atoms: _357  and  _358
REMARK  176  A    between atoms: _357  and  _360
REMARK  177  A    between atoms: _360  and  _361
REMARK  178  A    between atoms: _361  and  _362
REMARK  179  A    between atoms: _362  and  _363
REMARK  180  A    between atoms: _367  and  _368
REMARK  181  A    between atoms: _368  and  _369
REMARK  182  A    between atoms: _368  and  _371
REMARK  183  A    between atoms: _371  and  _372
REMARK  184  A    between atoms: _379  and  _380
REMARK  185  A    between atoms: _380  and  _381
REMARK  186  A    between atoms: _380  and  _383
REMARK  187  A    between atoms: _383  and  _384
REMARK  188  A    between atoms: _384  and  _385
REMARK  189  A    between atoms: _388  and  _389
REMARK  190  A    between atoms: _389  and  _390
REMARK  191  A    between atoms: _389  and  _392
REMARK  192  A    between atoms: _394  and  _395
REMARK  193  A    between atoms: _395  and  _396
REMARK  194  A    between atoms: _395  and  _398
REMARK  195  A    between atoms: _398  and  _399
REMARK  196  A    between atoms: _402  and  _403
REMARK  197  A    between atoms: _403  and  _404
REMARK  198  A    between atoms: _403  and  _406
REMARK  199  A    between atoms: _409  and  _410
REMARK  200  A    between atoms: _410  and  _411
REMARK  201  A    between atoms: _410  and  _413
REMARK  202  A    between atoms: _413  and  _414
REMARK  203  A    between atoms: _418  and  _419
REMARK  204  A    between atoms: _424  and  _425
REMARK  205  A    between atoms: _425  and  _426
REMARK  206  A    between atoms: _425  and  _428
REMARK  207  A    between atoms: _430  and  _431
REMARK  208  A    between atoms: _431  and  _432
REMARK  209  A    between atoms: _431  and  _434
REMARK  210  A    between atoms: _434  and  _435
REMARK  211  A    between atoms: _435  and  _436
REMARK  212  A    between atoms: _436  and  _437
REMARK  213  A    between atoms: _439  and  _440
REMARK  214  A    between atoms: _440  and  _441
REMARK  215  A    between atoms: _440  and  _443
REMARK  216  A    between atoms: _443  and  _444
REMARK  217  A    between atoms: _447  and  _448
REMARK  218  A    between atoms: _448  and  _449
REMARK  219  A    between atoms: _448  and  _451
REMARK  220  A    between atoms: _451  and  _452
REMARK  221  A    between atoms: _455  and  _456
REMARK  222  A    between atoms: _456  and  _457
REMARK  223  A    between atoms: _456  and  _459
REMARK  224  A    between atoms: _461  and  _462
REMARK  225  A    between atoms: _462  and  _463
REMARK  226  A    between atoms: _465  and  _466
REMARK  227  A    between atoms: _466  and  _467
REMARK  228  A    between atoms: _466  and  _469
REMARK  229  A    between atoms: _469  and  _470
REMARK  230  A    between atoms: _470  and  _471
REMARK  231  A    between atoms: _471  and  _472
REMARK  232  A    between atoms: _474  and  _475
REMARK  233  A    between atoms: _475  and  _476
REMARK  234  A    between atoms: _475  and  _478
REMARK  235  A    between atoms: _478  and  _479
REMARK  236  A    between atoms: _479  and  _480
REMARK  237  A    between atoms: _483  and  _484
REMARK  238  A    between atoms: _484  and  _485
REMARK  239  A    between atoms: _484  and  _487
REMARK  240  A    between atoms: _487  and  _488
REMARK  241  A    between atoms: _491  and  _492
REMARK  242  A    between atoms: _492  and  _493
REMARK  243  A    between atoms: _492  and  _495
REMARK  244  A    between atoms: _495  and  _496
REMARK  245  A    between atoms: _501  and  _502
REMARK  246  A    between atoms: _502  and  _503
REMARK  247  A    between atoms: _502  and  _505
REMARK  248  A    between atoms: _505  and  _506
REMARK  249  A    between atoms: _509  and  _510
REMARK  250  A    between atoms: _510  and  _511
REMARK  251  A    between atoms: _510  and  _513
REMARK  252  A    between atoms: _513  and  _514
REMARK  253  A    between atoms: _517  and  _518
REMARK  254  A    between atoms: _518  and  _519
REMARK  255  A    between atoms: _518  and  _521
REMARK  256  A    between atoms: _521  and  _522
REMARK  257  A    between atoms: _525  and  _526
REMARK  258  A    between atoms: _526  and  _527
REMARK  259  A    between atoms: _526  and  _529
REMARK  260  A    between atoms: _529  and  _530
REMARK  261  A    between atoms: _534  and  _535
REMARK  262  A    between atoms: _540  and  _541
REMARK  263  A    between atoms: _541  and  _542
REMARK  264  A    between atoms: _541  and  _544
REMARK  265  A    between atoms: _544  and  _545
REMARK  266  A    between atoms: _548  and  _549
REMARK  267  A    between atoms: _549  and  _552
REMARK  268  A    between atoms: _552  and  _553
REMARK  269  A    between atoms: _553  and  _554
REMARK  270  A    between atoms: _554  and  _555
REMARK  271  A    between atoms: _568  and  _569
REMARK  272  A    between atoms: _576  and  _577
REMARK  273  A    between atoms: _576  and  _579
REMARK  274  A    between atoms: _579  and  _580
REMARK  275  A    between atoms: _583  and  _584
REMARK  276  A    between atoms: _584  and  _585
REMARK  277  A    between atoms: _584  and  _587
REMARK  278  A    between atoms: _587  and  _588
REMARK  279  A    between atoms: _588  and  _589
REMARK  280  A    between atoms: _589  and  _590
REMARK  281  A    between atoms: _594  and  _595
REMARK  282  A    between atoms: _595  and  _596
REMARK  283  A    between atoms: _595  and  _598
REMARK  284  A    between atoms: _601  and  _602
REMARK  285  A    between atoms: _602  and  _603
REMARK  286  A    between atoms: _602  and  _605
REMARK  287  A    between atoms: _605  and  _606
REMARK  288  A    between atoms: _609  and  _610
REMARK  289  A    between atoms: _610  and  _611
REMARK  290  A    between atoms: _610  and  _613
REMARK  291  A    between atoms: _616  and  _617
REMARK  292  A    between atoms: _617  and  _618
REMARK  293  A    between atoms: _617  and  _620
REMARK  294  A    between atoms: _620  and  _621
REMARK  295  A    between atoms: _624  and  _625
REMARK  296  A    between atoms: _625  and  _626
REMARK  297  A    between atoms: _625  and  _628
REMARK  298  A    between atoms: _631  and  _632
REMARK  299  A    between atoms: _632  and  _633
REMARK  300  A    between atoms: _632  and  _635
REMARK  301  A    between atoms: _635  and  _636
REMARK  302  A    between atoms: _639  and  _640
REMARK  303  A    between atoms: _640  and  _641
REMARK  304  A    between atoms: _640  and  _643
REMARK  305  A    between atoms: _646  and  _647
REMARK  306  A    between atoms: _647  and  _648
REMARK  307  A    between atoms: _650  and  _651
REMARK  308  A    between atoms: _651  and  _652
REMARK  309  A    between atoms: _651  and  _654
REMARK  310  A    between atoms: _654  and  _655
REMARK  311  A    between atoms: _658  and  _659
REMARK  312  A    between atoms: _659  and  _660
REMARK  313  A    between atoms: _662  and  _663
REMARK  314  A    between atoms: _663  and  _664
REMARK  315  A    between atoms: _663  and  _666
REMARK  316  A    between atoms: _666  and  _667
REMARK  317  A    between atoms: _667  and  _668
REMARK  318  A    between atoms: _670  and  _671
REMARK  319  A    between atoms: _671  and  _672
REMARK  320  A    between atoms: _671  and  _674
REMARK  321  A    between atoms: _677  and  _678
REMARK  322  A    between atoms: _678  and  _679
REMARK  323  A    between atoms: _678  and  _681
REMARK  324  A    between atoms: _681  and  _682
REMARK  325  A    between atoms: _682  and  _683
REMARK  326  A    between atoms: _683  and  _684
REMARK  327  A    between atoms: _686  and  _687
REMARK  328  A    between atoms: _687  and  _688
REMARK  329  A    between atoms: _691  and  _692
REMARK  330  A    between atoms: _692  and  _693
REMARK  331  A    between atoms: _692  and  _695
REMARK  332  A    between atoms: _695  and  _696
REMARK  333  A    between atoms: _699  and  _700
REMARK  334  A    between atoms: _700  and  _701
REMARK  335  A    between atoms: _700  and  _703
REMARK  336  A    between atoms: _703  and  _704
REMARK  337  A    between atoms: _707  and  _708
REMARK  338  A    between atoms: _708  and  _709
REMARK  339  A    between atoms: _708  and  _711
REMARK  340  A    between atoms: _711  and  _712
REMARK  341  A    between atoms: _715  and  _716
REMARK  342  A    between atoms: _716  and  _717
REMARK  343  A    between atoms: _716  and  _719
REMARK  344  A    between atoms: _719  and  _720
REMARK  345  A    between atoms: _723  and  _724
REMARK  346  A    between atoms: _724  and  _725
REMARK  347  A    between atoms: _724  and  _727
REMARK  348  A    between atoms: _727  and  _728
REMARK  349  A    between atoms: _731  and  _732
REMARK  350  A    between atoms: _732  and  _733
REMARK  351  A    between atoms: _732  and  _735
REMARK  352  A    between atoms: _735  and  _736
REMARK  353  A    between atoms: _739  and  _740
REMARK  354  A    between atoms: _740  and  _741
REMARK  355  A    between atoms: _743  and  _744
REMARK  356  A    between atoms: _744  and  _745
REMARK  357  A    between atoms: _744  and  _747
REMARK  358  A    between atoms: _750  and  _751
REMARK  359  A    between atoms: _751  and  _752
REMARK  360  A    between atoms: _751  and  _754
REMARK  361  A    between atoms: _754  and  _755
REMARK  362  A    between atoms: _758  and  _759
REMARK  363  A    between atoms: _759  and  _760
REMARK  364  A    between atoms: _763  and  _764
REMARK  365  A    between atoms: _764  and  _765
REMARK  366  A    between atoms: _764  and  _767
REMARK  367  A    between atoms: _767  and  _768
REMARK  368  A    between atoms: _768  and  _769
REMARK  369  A    between atoms: _769  and  _770
REMARK  370  A    between atoms: _772  and  _773
REMARK  371  A    between atoms: _773  and  _774
REMARK  372  A    between atoms: _773  and  _776
REMARK  373  A    between atoms: _778  and  _779
REMARK  374  A    between atoms: _779  and  _780
REMARK  375  A    between atoms: _782  and  _783
REMARK  376  A    between atoms: _783  and  _784
REMARK  377  A    between atoms: _783  and  _786
REMARK  378  A    between atoms: _789  and  _790
REMARK  379  A    between atoms: _790  and  _791
REMARK  380  A    between atoms: _790  and  _793
REMARK  381  A    between atoms: _793  and  _794
REMARK  382  A    between atoms: _794  and  _795
REMARK  383  A    between atoms: _795  and  _796
REMARK  384  A    between atoms: _798  and  _799
REMARK  385  A    between atoms: _799  and  _800
REMARK  386  A    between atoms: _803  and  _804
REMARK  387  A    between atoms: _804  and  _805
REMARK  388  A    between atoms: _804  and  _807
REMARK  389  A    between atoms: _807  and  _808
REMARK  390  A    between atoms: _814  and  _815
REMARK  391  A    between atoms: _815  and  _816
REMARK  392  A    between atoms: _815  and  _818
REMARK  393  A    between atoms: _818  and  _819
REMARK  394  A    between atoms: _819  and  _820
REMARK  395  A    between atoms: _822  and  _823
REMARK  396  A    between atoms: _823  and  _824
REMARK  397  A    between atoms: _823  and  _826
REMARK  398  A    between atoms: _826  and  _827
REMARK  399  A    between atoms: _827  and  _828
REMARK  400  A    between atoms: _831  and  _832
REMARK  401  A    between atoms: _832  and  _833
REMARK  402  A    between atoms: _836  and  _837
REMARK  403  A    between atoms: _837  and  _838
REMARK  404  A    between atoms: _837  and  _840
REMARK  405  A    between atoms: _840  and  _841
REMARK  406  A    between atoms: _844  and  _845
REMARK  407  A    between atoms: _845  and  _846
REMARK  408  A    between atoms: _845  and  _848
REMARK  409  A    between atoms: _848  and  _849
REMARK  410  A    between atoms: _849  and  _850
REMARK  411  A    between atoms: _853  and  _854
REMARK  412  A    between atoms: _854  and  _855
REMARK  413  A    between atoms: _858  and  _859
REMARK  414  A    between atoms: _859  and  _860
REMARK  415  A    between atoms: _862  and  _863
REMARK  416  A    between atoms: _863  and  _864
REMARK  417  A    between atoms: _867  and  _868
REMARK  418  A    between atoms: _868  and  _869
REMARK  419  A    between atoms: _868  and  _871
REMARK  420  A    between atoms: _871  and  _872
REMARK  421  A    between atoms: _875  and  _876
REMARK  422  A    between atoms: _876  and  _877
REMARK  423  A    between atoms: _876  and  _879
REMARK  424  A    between atoms: _879  and  _880
REMARK  425  A    between atoms: _883  and  _884
REMARK  426  A    between atoms: _884  and  _887
REMARK  427  A    between atoms: _906  and  _907
REMARK  428  A    between atoms: _906  and  _909
REMARK  429  A    between atoms: _909  and  _910
REMARK  430  A    between atoms: _913  and  _914
REMARK  431  A    between atoms: _914  and  _915
REMARK  432  A    between atoms: _917  and  _918
REMARK  433  A    between atoms: _918  and  _919
REMARK  434  A    between atoms: _918  and  _921
REMARK  435  A    between atoms: _921  and  _922
REMARK  436  A    between atoms: _922  and  _923
REMARK  437  A    between atoms: _926  and  _927
REMARK  438  A    between atoms: _927  and  _928
REMARK  439  A    between atoms: _927  and  _930
REMARK  440  A    between atoms: _930  and  _931
REMARK  441  A    between atoms: _937  and  _938
REMARK  442  A    between atoms: _938  and  _939
REMARK  443  A    between atoms: _941  and  _942
REMARK  444  A    between atoms: _942  and  _943
REMARK  445  A    between atoms: _942  and  _945
REMARK  446  A    between atoms: _948  and  _949
REMARK  447  A    between atoms: _949  and  _950
REMARK  448  A    between atoms: _952  and  _953
REMARK  449  A    between atoms: _953  and  _954
REMARK  450  A    between atoms: _953  and  _956
REMARK  451  A    between atoms: _956  and  _957
REMARK  452  A    between atoms: _963  and  _964
REMARK  453  A    between atoms: _964  and  _965
REMARK  454  A    between atoms: _964  and  _967
REMARK  455  A    between atoms: _967  and  _968
REMARK  456  A    between atoms: _975  and  _976
REMARK  457  A    between atoms: _976  and  _977
REMARK  458  A    between atoms: _976  and  _979
REMARK  459  A    between atoms: _981  and  _982
REMARK  460  A    between atoms: _982  and  _983
REMARK  461  A    between atoms: _986  and  _987
REMARK  462  A    between atoms: _987  and  _988
REMARK  463  A    between atoms: _987  and  _990
REMARK  464  A    between atoms: _990  and  _991
REMARK  465  A    between atoms: _998  and  _999
REMARK  466  A    between atoms: _999  and  _1000
REMARK  467  A    between atoms: _999  and  _1002
REMARK  468  A    between atoms: _1002  and  _1003
REMARK  469  A    between atoms: _1006  and  _1007
REMARK  470  A    between atoms: _1007  and  _1008
REMARK  471  A    between atoms: _1007  and  _1010
REMARK  472  A    between atoms: _1013  and  _1014
REMARK  473  A    between atoms: _1014  and  _1015
REMARK  474  A    between atoms: _1018  and  _1019
REMARK  475  A    between atoms: _1019  and  _1020
REMARK  476  A    between atoms: _1019  and  _1022
REMARK  477  A    between atoms: _1023  and  _1024
REMARK  478  A    between atoms: _1027  and  _1028
REMARK  479  A    between atoms: _1028  and  _1029
REMARK  480  A    between atoms: _1028  and  _1031
REMARK  481  A    between atoms: _1031  and  _1032
REMARK  482  A    between atoms: _1032  and  _1033
REMARK  483  A    between atoms: _1033  and  _1034
REMARK  484  A    between atoms: _1036  and  _1037
REMARK  485  A    between atoms: _1037  and  _1038
REMARK  486  A    between atoms: _1037  and  _1040
REMARK  487  A    between atoms: _1043  and  _1044
REMARK  488  A    between atoms: _1044  and  _1045
REMARK  489  A    between atoms: _1044  and  _1047
REMARK  490  A    between atoms: _1050  and  _1051
REMARK  491  A    between atoms: _1051  and  _1052
REMARK  492  A    between atoms: _1051  and  _1054
REMARK  493  A    between atoms: _1057  and  _1058
REMARK  494  A    between atoms: _1058  and  _1059
REMARK  495  A    between atoms: _1058  and  _1061
REMARK  496  A    between atoms: _1061  and  _1062
REMARK  497  A    between atoms: _1065  and  _1066
REMARK  498  A    between atoms: _1066  and  _1067
REMARK  499  A    between atoms: _1066  and  _1069
REMARK  500  A    between atoms: _1072  and  _1073
REMARK  501  A    between atoms: _1073  and  _1074
REMARK  502  A    between atoms: _1073  and  _1076
REMARK  503  A    between atoms: _1076  and  _1077
REMARK  504  A    between atoms: _1077  and  _1078
REMARK  505  A    between atoms: _1078  and  _1079
REMARK  506  A    between atoms: _1081  and  _1082
REMARK  507  A    between atoms: _1082  and  _1083
REMARK  508  A    between atoms: _1082  and  _1085
REMARK  509  A    between atoms: _1085  and  _1086
REMARK  510  A    between atoms: _1091  and  _1092
REMARK  511  A    between atoms: _1092  and  _1093
REMARK  512  A    between atoms: _1092  and  _1095
REMARK  513  A    between atoms: _1095  and  _1096
REMARK  514  A    between atoms: _1099  and  _1100
REMARK  515  A    between atoms: _1100  and  _1101
REMARK  516  A    between atoms: _1100  and  _1103
REMARK  517  A    between atoms: _1103  and  _1104
REMARK  518  A    between atoms: _1107  and  _1108
REMARK  519  A    between atoms: _1108  and  _1111
REMARK  520  A    between atoms: _1111  and  _1112
REMARK  521  A    between atoms: _1125  and  _1127
REMARK  522  A    between atoms: _1134  and  _1135
REMARK  523  A    between atoms: _1134  and  _1137
REMARK  524  A    between atoms: _1137  and  _1138
REMARK  525  A    between atoms: _1138  and  _1139
REMARK  526  A    between atoms: _1142  and  _1143
REMARK  527  A    between atoms: _1143  and  _1144
REMARK  528  A    between atoms: _1143  and  _1146
REMARK  529  A    between atoms: _1146  and  _1147
REMARK  530  A    between atoms: _1154  and  _1155
REMARK  531  A    between atoms: _1155  and  _1156
REMARK  532  A    between atoms: _1159  and  _1160
REMARK  533  A    between atoms: _1160  and  _1161
REMARK  534  A    between atoms: _1160  and  _1163
REMARK  535  A    between atoms: _1163  and  _1164
REMARK  536  A    between atoms: _1173  and  _1174
REMARK  537  A    between atoms: _1174  and  _1175
REMARK  538  A    between atoms: _1174  and  _1177
REMARK  539  A    between atoms: _1177  and  _1178
REMARK  540  A    between atoms: _1178  and  _1179
REMARK  541  A    between atoms: _1182  and  _1183
REMARK  542  A    between atoms: _1183  and  _1184
REMARK  543  A    between atoms: _1183  and  _1186
REMARK  544  A    between atoms: _1188  and  _1189
REMARK  545  A    between atoms: _1189  and  _1190
REMARK  546  A    between atoms: _1189  and  _1192
REMARK  547  A    between atoms: _1194  and  _1195
REMARK  548  A    between atoms: _1195  and  _1196
REMARK  549  A    between atoms: _1199  and  _1200
REMARK  550  A    between atoms: _1200  and  _1201
REMARK  551  A    between atoms: _1203  and  _1204
REMARK  552  A    between atoms: _1204  and  _1205
REMARK  553  A    between atoms: _1207  and  _1208
REMARK  554  A    between atoms: _1208  and  _1209
REMARK  555  A    between atoms: _1208  and  _1211
REMARK  556  A    between atoms: _1213  and  _1214
REMARK  557  A    between atoms: _1214  and  _1215
REMARK  558  A    between atoms: _1214  and  _1217
REMARK  559  A    between atoms: _1217  and  _1218
REMARK  560  A    between atoms: _1224  and  _1225
REMARK  561  A    between atoms: _1225  and  _1226
REMARK  562  A    between atoms: _1225  and  _1228
REMARK  563  A    between atoms: _1231  and  _1232
REMARK  564  A    between atoms: _1232  and  _1233
REMARK  565  A    between atoms: _1232  and  _1235
REMARK  566  A    between atoms: _1238  and  _1239
REMARK  567  A    between atoms: _1239  and  _1240
REMARK  568  A    between atoms: _1239  and  _1242
REMARK  569  A    between atoms: _1242  and  _1243
REMARK  570  A    between atoms: _1243  and  _1244
REMARK  571  A    between atoms: _1244  and  _1245
REMARK  572  A    between atoms: _1249  and  _1250
REMARK  573  A    between atoms: _1250  and  _1251
REMARK  574  A    between atoms: _1250  and  _1253
REMARK  575  A    between atoms: _1256  and  _1257
REMARK  576  A    between atoms: _1257  and  _1258
REMARK  577  A    between atoms: _1257  and  _1260
REMARK  578  A    between atoms: _1260  and  _1261
REMARK  579  A    between atoms: _1264  and  _1265
REMARK  580  A    between atoms: _1265  and  _1266
REMARK  581  A    between atoms: _1265  and  _1268
REMARK  582  A    between atoms: _1271  and  _1272
REMARK  583  A    between atoms: _1272  and  _1273
REMARK  584  A    between atoms: _1275  and  _1276
REMARK  585  A    between atoms: _1276  and  _1277
REMARK  586  A    between atoms: _1276  and  _1279
REMARK  587  A    between atoms: _1279  and  _1280
REMARK  588  A    between atoms: _1280  and  _1281
REMARK  589  A    between atoms: _1285  and  _1286
REMARK  590  A    between atoms: _1291  and  _1293
REMARK  591  A    between atoms: _1298  and  _1299
REMARK  592  A    between atoms: _1299  and  _1301
REMARK  593  A    between atoms: _1300  and  _1301
REMARK  594  A    between atoms: _1304  and  _1305
REMARK  595  A    between atoms: _1305  and  _1306
REMARK  596  A    between atoms: _1308  and  _1309
REMARK  597  A    between atoms: _1309  and  _1310
REMARK  598  A    between atoms: _1309  and  _1312
REMARK  599  A    between atoms: _1312  and  _1313
REMARK  600  A    between atoms: _1313  and  _1314
REMARK  601  A    between atoms: _1314  and  _1315
REMARK  602  A    between atoms: _1319  and  _1320
REMARK  603  A    between atoms: _1320  and  _1321
REMARK  604  A    between atoms: _1323  and  _1324
REMARK  605  A    between atoms: _1324  and  _1325
REMARK  606  A    between atoms: _1324  and  _1327
REMARK  607  A    between atoms: _1330  and  _1331
REMARK  608  A    between atoms: _1331  and  _1332
REMARK  609  A    between atoms: _1331  and  _1334
REMARK  610  A    between atoms: _1334  and  _1335
REMARK  611  A    between atoms: _1335  and  _1336
REMARK  612  A    between atoms: _1336  and  _1337
REMARK  613  A    between atoms: _1339  and  _1340
REMARK  614  A    between atoms: _1340  and  _1341
REMARK  615  A    between atoms: _1340  and  _1343
REMARK  616  A    between atoms: _1346  and  _1347
REMARK  617  A    between atoms: _1347  and  _1348
REMARK  618  A    between atoms: _1347  and  _1350
REMARK  619  A    between atoms: _1350  and  _1351
REMARK  620  A    between atoms: _1354  and  _1355
REMARK  621  A    between atoms: _1355  and  _1356
REMARK  622  A    between atoms: _1355  and  _1358
REMARK  623  A    between atoms: _1358  and  _1359
REMARK  624  A    between atoms: _1362  and  _1363
REMARK  625  A    between atoms: _1363  and  _1364
REMARK  626  A    between atoms: _1363  and  _1366
REMARK  627  A    between atoms: _1366  and  _1367
REMARK  628  A    between atoms: _1372  and  _1373
REMARK  629  A    between atoms: _1373  and  _1374
REMARK  630  A    between atoms: _1373  and  _1376
REMARK  631  A    between atoms: _1376  and  _1377
REMARK  632  A    between atoms: _1380  and  _1381
REMARK  633  A    between atoms: _1381  and  _1382
REMARK  634  A    between atoms: _1381  and  _1384
REMARK  635  A    between atoms: _1384  and  _1385
REMARK  636  A    between atoms: _1385  and  _1386
REMARK  637  A    between atoms: _1386  and  _1387
REMARK  638  A    between atoms: _1389  and  _1390
REMARK  639  A    between atoms: _1390  and  _1391
REMARK  640  A    between atoms: _1390  and  _1393
REMARK  641  A    between atoms: _1393  and  _1394
REMARK  642  A    between atoms: _1394  and  _1395
REMARK  643  A    between atoms: _1398  and  _1399
REMARK  644  A    between atoms: _1399  and  _1400
REMARK  645  A    between atoms: _1399  and  _1402
REMARK  646  A    between atoms: _1402  and  _1403
REMARK  647  A    between atoms: _1406  and  _1407
REMARK  648  A    between atoms: _1407  and  _1408
REMARK  649  A    between atoms: _1407  and  _1410
REMARK  650  A    between atoms: _1410  and  _1411
REMARK  651  A    between atoms: _1411  and  _1412
REMARK  652  A    between atoms: _1415  and  _1416
REMARK  653  A    between atoms: _1416  and  _1417
REMARK  654  A    between atoms: _1416  and  _1419
REMARK  655  A    between atoms: _1422  and  _1423
REMARK  656  A    between atoms: _1423  and  _1424
REMARK  657  A    between atoms: _1423  and  _1426
REMARK  658  A    between atoms: _1426  and  _1427
REMARK  659  A    between atoms: _1427  and  _1428
REMARK  660  A    between atoms: _1431  and  _1432
REMARK  661  A    between atoms: _1432  and  _1433
REMARK  662  A    between atoms: _1432  and  _1435
REMARK  663  A    between atoms: _1435  and  _1436
REMARK  664  A    between atoms: _1443  and  _1444
REMARK  665  A    between atoms: _1444  and  _1445
REMARK  666  A    between atoms: _1444  and  _1447
REMARK  667  A    between atoms: _1447  and  _1448
REMARK  668  A    between atoms: _1451  and  _1452
REMARK  669  A    between atoms: _1452  and  _1453
REMARK  670  A    between atoms: _1452  and  _1455
REMARK  671  A    between atoms: _1455  and  _1456
REMARK  672  A    between atoms: _1456  and  _1457
REMARK  673  A    between atoms: _1460  and  _1461
REMARK  674  A    between atoms: _1461  and  _1462
REMARK  675  A    between atoms: _1461  and  _1464
REMARK  676  A    between atoms: _1464  and  _1465
REMARK  677  A    between atoms: _1465  and  _1466
REMARK  678  A    between atoms: _1469  and  _1470
REMARK  679  A    between atoms: _1470  and  _1471
REMARK  680  A    between atoms: _1470  and  _1473
REMARK  681  A    between atoms: _1473  and  _1474
REMARK  682  A    between atoms: _1474  and  _1475
REMARK  683  A    between atoms: _1475  and  _1476
REMARK  684  A    between atoms: _1480  and  _1481
REMARK  685  A    between atoms: _1481  and  _1482
REMARK  686  A    between atoms: _1481  and  _1484
REMARK  687  A    between atoms: _1484  and  _1485
REMARK  688  A    between atoms: _1485  and  _1486
REMARK  689  A    between atoms: _1486  and  _1487
REMARK  690  A    between atoms: _1491  and  _1492
REMARK  691  A    between atoms: _1492  and  _1493
REMARK  692  A    between atoms: _1492  and  _1495
REMARK  693  A    between atoms: _1495  and  _1496
REMARK  694  A    between atoms: _1499  and  _1500
REMARK  695  A    between atoms: _1500  and  _1501
REMARK  696  A    between atoms: _1500  and  _1503
REMARK  697  A    between atoms: _1503  and  _1504
REMARK  698  A    between atoms: _1504  and  _1505
REMARK  699  A    between atoms: _1505  and  _1506
REMARK  700  A    between atoms: _1508  and  _1509
REMARK  701  A    between atoms: _1509  and  _1510
REMARK  702  A    between atoms: _1509  and  _1512
REMARK  703  A    between atoms: _1512  and  _1513
REMARK  704  A    between atoms: _1513  and  _1514
REMARK  705  A    between atoms: _1517  and  _1518
REMARK  706  A    between atoms: _1518  and  _1519
REMARK  707  A    between atoms: _1518  and  _1521
REMARK  708  A    between atoms: _1521  and  _1522
REMARK  709  A    between atoms: _1525  and  _1526
REMARK  710  A    between atoms: _1526  and  _1527
REMARK  711  A    between atoms: _1526  and  _1529
REMARK  712  A    between atoms: _1532  and  _1533
REMARK  713  A    between atoms: _1533  and  _1534
REMARK  714  A    between atoms: _1533  and  _1536
REMARK  715  A    between atoms: _1536  and  _1537
REMARK  716  A    between atoms: _1537  and  _1538
REMARK  717  A    between atoms: _1538  and  _1539
REMARK  718  A    between atoms: _1541  and  _1542
REMARK  719  A    between atoms: _1542  and  _1543
REMARK  720  A    between atoms: _1542  and  _1545
REMARK  721  A    between atoms: _1545  and  _1546
REMARK  722  A    between atoms: _1546  and  _1547
REMARK  723  A    between atoms: _1547  and  _1548
REMARK  724  A    between atoms: _1550  and  _1551
REMARK  725  A    between atoms: _1551  and  _1552
REMARK  726  A    between atoms: _1551  and  _1554
REMARK  727  A    between atoms: _1554  and  _1555
REMARK  728  A    between atoms: _1560  and  _1561
REMARK  729  A    between atoms: _1561  and  _1562
REMARK  730  A    between atoms: _1561  and  _1564
REMARK  731  A    between atoms: _1566  and  _1567
REMARK  732  A    between atoms: _1567  and  _1568
REMARK  733  A    between atoms: _1567  and  _1570
REMARK  734  A    between atoms: _1570  and  _1571
REMARK  735  A    between atoms: _1571  and  _1572
REMARK  736  A    between atoms: _1575  and  _1576
REMARK  737  A    between atoms: _1576  and  _1577
REMARK  738  A    between atoms: _1576  and  _1579
REMARK  739  A    between atoms: _1579  and  _1580
REMARK  740  A    between atoms: _1586  and  _1587
REMARK  741  A    between atoms: _1587  and  _1588
REMARK  742  A    between atoms: _1587  and  _1590
REMARK  743  A    between atoms: _1590  and  _1591
REMARK  744  A    between atoms: _1594  and  _1595
REMARK  745  A    between atoms: _1595  and  _1596
REMARK  746  A    between atoms: _1598  and  _1599
REMARK  747  A    between atoms: _1599  and  _1600
REMARK  748  A    between atoms: _1599  and  _1602
REMARK  749  A    between atoms: _1602  and  _1603
REMARK  750  A    between atoms: _1611  and  _1612
REMARK  751  A    between atoms: _1617  and  _1618
REMARK  752  A    between atoms: _1618  and  _1619
REMARK  753  A    between atoms: _1618  and  _1621
REMARK  754  A    between atoms: _1621  and  _1622
REMARK  755  A    between atoms: _1625  and  _1626
REMARK  756  A    between atoms: _1626  and  _1627
REMARK  757  A    between atoms: _1626  and  _1629
REMARK  758  A    between atoms: _1632  and  _1633
REMARK  759  A    between atoms: _1633  and  _1634
REMARK  760  A    between atoms: _1633  and  _1636
REMARK  761  A    between atoms: _1636  and  _1637
REMARK  762  A    between atoms: _1640  and  _1641
REMARK  763  A    between atoms: _1641  and  _1642
REMARK  764  A    between atoms: _1641  and  _1644
REMARK  765  A    between atoms: _1644  and  _1645
REMARK  766  A    between atoms: _1651  and  _1652
REMARK  767  A    between atoms: _1652  and  _1653
REMARK  768  A    between atoms: _1652  and  _1655
REMARK  769  A    between atoms: _1658  and  _1659
REMARK  770  A    between atoms: _1659  and  _1660
REMARK  771  A    between atoms: _1659  and  _1662
REMARK  772  A    between atoms: _1662  and  _1663
REMARK  773  A    between atoms: _1663  and  _1664
REMARK  774  A    between atoms: _1667  and  _1668
REMARK  775  A    between atoms: _1668  and  _1669
REMARK  776  A    between atoms: _1668  and  _1671
REMARK  777  A    between atoms: _1671  and  _1672
REMARK  778  A    between atoms: _1672  and  _1673
REMARK  779  A    between atoms: _1673  and  _1674
REMARK                            x       y       z     vdW  Elec       q    Type
REMARK                         _______ _______ _______ _____ _____    ______ ____
ROOT
ATOM      1  C   UNL     1       0.270  26.724  10.773  0.00  0.00    +0.279 C 
ATOM      2  O   UNL     1       0.588  27.586  11.594  0.00  0.00    -0.279 OA
ENDROOT
TORSDOF 0
REMARK  Name = /Users/mlugowska/PhD/ML_residence_time_prediction/protein_files/5NYH_protein.pdb
REMARK  779 active torsions:
REMARK  status: ('A' for Active; 'I' for Inactive)
REMARK    1  A    between atoms: _2  and  _3
REMARK    2  A    between atoms: _2  and  _5
REMARK    3  A    between atoms: _5  and  _6
REMARK    4  A    between atoms: _6  and  _7
REMARK    5  A    between atoms: _10  and  _11
REMARK    6  A    between atoms: _11  and  _12
REMARK    7  A    between atoms: _11  and  _14
REMARK    8  A    between atoms: _17  and  _18
REMARK    9  A    between atoms: _18  and  _19
REMARK   10  A    between atoms: _18  and  _21
REMARK   11  A    between atoms: _21  and  _22
REMARK   12  A    between atoms: _22  and  _23
REMARK   13  A    between atoms: _26  and  _27
REMARK   14  A    between atoms: _27  and  _28
REMARK   15  A    between atoms: _27  and  _30
REMARK   16  A    between atoms: _33  and  _34
REMARK   17  A    between atoms: _34  and  _35
REMARK   18  A    between atoms: _34  and  _37
REMARK   19  A    between atoms: _37  and  _38
REMARK   20  A    between atoms: _44  and  _45
REMARK   21  A    between atoms: _45  and  _46
REMARK   22  A    between atoms: _49  and  _50
REMARK   23  A    between atoms: _50  and  _51
REMARK   24  A    between atoms: _50  and  _53
REMARK   25  A    between atoms: _53  and  _54
REMARK   26  A    between atoms: _60  and  _61
REMARK   27  A    between atoms: _61  and  _62
REMARK   28  A    between atoms: _61  and  _64
REMARK   29  A    between atoms: _64  and  _65
REMARK   30  A    between atoms: _65  and  _66
REMARK   31  A    between atoms: _69  and  _70
REMARK   32  A    between atoms: _70  and  _71
REMARK   33  A    between atoms: _74  and  _75
REMARK   34  A    between atoms: _75  and  _76
REMARK   35  A    between atoms: _75  and  _78
REMARK   36  A    between atoms: _78  and  _79
REMARK   37  A    between atoms: _79  and  _80
REMARK   38  A    between atoms: _83  and  _84
REMARK   39  A    between atoms: _84  and  _85
REMARK   40  A    between atoms: _84  and  _87
REMARK   41  A    between atoms: _87  and  _88
REMARK   42  A    between atoms: _91  and  _92
REMARK   43  A    between atoms: _92  and  _93
REMARK   44  A    between atoms: _96  and  _97
REMARK   45  A    between atoms: _97  and  _98
REMARK   46  A    between atoms: _97  and  _100
REMARK   47  A    between atoms: _100  and  _101
REMARK   48  A    between atoms: _101  and  _102
REMARK   49  A    between atoms: _105  and  _106
REMARK   50  A    between atoms: _106  and  _107
REMARK   51  A    between atoms: _106  and  _109
REMARK   52  A    between atoms: _109  and  _110
REMARK   53  A    between atoms: _113  and  _114
REMARK   54  A    between atoms: _114  and  _115
REMARK   55  A    between atoms: _114  and  _117
REMARK   56  A    between atoms: _117  and  _118
REMARK   57  A    between atoms: _118  and  _119
REMARK   58  A    between atoms: _121  and  _122
REMARK   59  A    between atoms: _122  and  _123
REMARK   60  A    between atoms: _122  and  _125
REMARK   61  A    between atoms: _127  and  _128
REMARK   62  A    between atoms: _128  and  _129
REMARK   63  A    between atoms: _128  and  _131
REMARK   64  A    between atoms: _131  and  _132
REMARK   65  A    between atoms: _135  and  _136
REMARK   66  A    between atoms: _136  and  _137
REMARK   67  A    between atoms: _136  and  _139
REMARK   68  A    between atoms: _139  and  _140
REMARK   69  A    between atoms: _143  and  _144
REMARK   70  A    between atoms: _144  and  _145
REMARK   71  A    between atoms: _144  and  _147
REMARK   72  A    between atoms: _147  and  _148
REMARK   73  A    between atoms: _151  and  _152
REMARK   74  A    between atoms: _152  and  _153
REMARK   75  A    between atoms: _152  and  _155
REMARK   76  A    between atoms: _155  and  _156
REMARK   77  A    between atoms: _159  and  _160
REMARK   78  A    between atoms: _160  and  _161
REMARK   79  A    between atoms: _160  and  _163
REMARK   80  A    between atoms: _166  and  _167
REMARK   81  A    between atoms: _167  and  _168
REMARK   82  A    between atoms: _167  and  _170
REMARK   83  A    between atoms: _170  and  _171
REMARK   84  A    between atoms: _177  and  _178
REMARK   85  A    between atoms: _178  and  _179
REMARK   86  A    between atoms: _178  and  _181
REMARK   87  A    between atoms: _181  and  _182
REMARK   88  A    between atoms: _189  and  _190
REMARK   89  A    between atoms: _190  and  _191
REMARK   90  A    between atoms: _190  and  _193
REMARK   91  A    between atoms: _195  and  _196
REMARK   92  A    between atoms: _196  and  _197
REMARK   93  A    between atoms: _196  and  _199
REMARK   94  A    between atoms: _199  and  _200
REMARK   95  A    between atoms: _203  and  _204
REMARK   96  A    between atoms: _204  and  _205
REMARK   97  A    between atoms: _204  and  _207
REMARK   98  A    between atoms: _207  and  _208
REMARK   99  A    between atoms: _208  and  _209
REMARK  100  A    between atoms: _209  and  _210
REMARK  101  A    between atoms: _212  and  _213
REMARK  102  A    between atoms: _213  and  _214
REMARK  103  A    between atoms: _213  and  _216
REMARK  104  A    between atoms: _216  and  _217
REMARK  105  A    between atoms: _217  and  _218
REMARK  106  A    between atoms: _221  and  _222
REMARK  107  A    between atoms: _222  and  _223
REMARK  108  A    between atoms: _222  and  _225
REMARK  109  A    between atoms: _225  and  _226
REMARK  110  A    between atoms: _229  and  _230
REMARK  111  A    between atoms: _230  and  _231
REMARK  112  A    between atoms: _230  and  _233
REMARK  113  A    between atoms: _233  and  _234
REMARK  114  A    between atoms: _240  and  _241
REMARK  115  A    between atoms: _241  and  _242
REMARK  116  A    between atoms: _241  and  _244
REMARK  117  A    between atoms: _244  and  _245
REMARK  118  A    between atoms: _248  and  _249
REMARK  119  A    between atoms: _249  and  _250
REMARK  120  A    between atoms: _249  and  _252
REMARK  121  A    between atoms: _252  and  _253
REMARK  122  A    between atoms: _253  and  _254
REMARK  123  A    between atoms: _254  and  _255
REMARK  124  A    between atoms: _259  and  _260
REMARK  125  A    between atoms: _260  and  _261
REMARK  126  A    between atoms: _260  and  _263
REMARK  127  A    between atoms: _263  and  _264
REMARK  128  A    between atoms: _264  and  _265
REMARK  129  A    between atoms: _268  and  _269
REMARK  130  A    between atoms: _269  and  _270
REMARK  131  A    between atoms: _269  and  _272
REMARK  132  A    between atoms: _272  and  _273
REMARK  133  A    between atoms: _276  and  _277
REMARK  134  A    between atoms: _277  and  _278
REMARK  135  A    between atoms: _277  and  _280
REMARK  136  A    between atoms: _280  and  _281
REMARK  137  A    between atoms: _284  and  _285
REMARK  138  A    between atoms: _285  and  _286
REMARK  139  A    between atoms: _285  and  _288
REMARK  140  A    between atoms: _290  and  _291
REMARK  141  A    between atoms: _291  and  _292
REMARK  142  A    between atoms: _291  and  _294
REMARK  143  A    between atoms: _294  and  _295
REMARK  144  A    between atoms: _298  and  _299
REMARK  145  A    between atoms: _299  and  _300
REMARK  146  A    between atoms: _299  and  _302
REMARK  147  A    between atoms: _304  and  _305
REMARK  148  A    between atoms: _305  and  _306
REMARK  149  A    between atoms: _305  and  _308
REMARK  150  A    between atoms: _310  and  _311
REMARK  151  A    between atoms: _311  and  _312
REMARK  152  A    between atoms: _311  and  _314
REMARK  153  A    between atoms: _314  and  _315
REMARK  154  A    between atoms: _318  and  _319
REMARK  155  A    between atoms: _319  and  _320
REMARK  156  A    between atoms: _323  and  _324
REMARK  157  A    between atoms: _324  and  _325
REMARK  158  A    between atoms: _324  and  _327
REMARK  159  A    between atoms: _327  and  _328
REMARK  160  A    between atoms: _331  and  _332
REMARK  161  A    between atoms: _332  and  _333
REMARK  162  A    between atoms: _332  and  _335
REMARK  163  A    between atoms: _335  and  _336
REMARK  164  A    between atoms: _339  and  _340
REMARK  165  A    between atoms: _340  and  _341
REMARK  166  A    between atoms: _340  and  _343
REMARK  167  A    between atoms: _343  and  _344
REMARK  168  A    between atoms: _344  and  _345
REMARK  169  A    between atoms: _345  and  _346
REMARK  170  A    between atoms: _348  and  _349
REMARK  171  A    between atoms: _349  and  _350
REMARK  172  A    between atoms: _349  and  _352
REMARK  173  A    between atoms: _352  and  _353
REMARK  174  A    between atoms: _356  and  _357
REMARK  175  A    between atoms: _357  and  _358
REMARK  176  A    between atoms: _357  and  _360
REMARK  177  A    between atoms: _360  and  _361
REMARK  178  A    between atoms: _361  and  _362
REMARK  179  A    between atoms: _362  and  _363
REMARK  180  A    between atoms: _367  and  _368
REMARK  181  A    between atoms: _368  and  _369
REMARK  182  A    between atoms: _368  and  _371
REMARK  183  A    between atoms: _371  and  _372
REMARK  184  A    between atoms: _379  and  _380
REMARK  185  A    between atoms: _380  and  _381
REMARK  186  A    between atoms: _380  and  _383
REMARK  187  A    between atoms: _383  and  _384
REMARK  188  A    between atoms: _384  and  _385
REMARK  189  A    between atoms: _388  and  _389
REMARK  190  A    between atoms: _389  and  _390
REMARK  191  A    between atoms: _389  and  _392
REMARK  192  A    between atoms: _394  and  _395
REMARK  193  A    between atoms: _395  and  _396
REMARK  194  A    between atoms: _395  and  _398
REMARK  195  A    between atoms: _398  and  _399
REMARK  196  A    between atoms: _402  and  _403
REMARK  197  A    between atoms: _403  and  _404
REMARK  198  A    between atoms: _403  and  _406
REMARK  199  A    between atoms: _409  and  _410
REMARK  200  A    between atoms: _410  and  _411
REMARK  201  A    between atoms: _410  and  _413
REMARK  202  A    between atoms: _413  and  _414
REMARK  203  A    between atoms: _418  and  _419
REMARK  204  A    between atoms: _424  and  _425
REMARK  205  A    between atoms: _425  and  _426
REMARK  206  A    between atoms: _425  and  _428
REMARK  207  A    between atoms: _430  and  _431
REMARK  208  A    between atoms: _431  and  _432
REMARK  209  A    between atoms: _431  and  _434
REMARK  210  A    between atoms: _434  and  _435
REMARK  211  A    between atoms: _435  and  _436
REMARK  212  A    between atoms: _436  and  _437
REMARK  213  A    between atoms: _439  and  _440
REMARK  214  A    between atoms: _440  and  _441
REMARK  215  A    between atoms: _440  and  _443
REMARK  216  A    between atoms: _443  and  _444
REMARK  217  A    between atoms: _447  and  _448
REMARK  218  A    between atoms: _448  and  _449
REMARK  219  A    between atoms: _448  and  _451
REMARK  220  A    between atoms: _451  and  _452
REMARK  221  A    between atoms: _455  and  _456
REMARK  222  A    between atoms: _456  and  _457
REMARK  223  A    between atoms: _456  and  _459
REMARK  224  A    between atoms: _461  and  _462
REMARK  225  A    between atoms: _462  and  _463
REMARK  226  A    between atoms: _465  and  _466
REMARK  227  A    between atoms: _466  and  _467
REMARK  228  A    between atoms: _466  and  _469
REMARK  229  A    between atoms: _469  and  _470
REMARK  230  A    between atoms: _470  and  _471
REMARK  231  A    between atoms: _471  and  _472
REMARK  232  A    between atoms: _474  and  _475
REMARK  233  A    between atoms: _475  and  _476
REMARK  234  A    between atoms: _475  and  _478
REMARK  235  A    between atoms: _478  and  _479
REMARK  236  A    between atoms: _479  and  _480
REMARK  237  A    between atoms: _483  and  _484
REMARK  238  A    between atoms: _484  and  _485
REMARK  239  A    between atoms: _484  and  _487
REMARK  240  A    between atoms: _487  and  _488
REMARK  241  A    between atoms: _491  and  _492
REMARK  242  A    between atoms: _492  and  _493
REMARK  243  A    between atoms: _492  and  _495
REMARK  244  A    between atoms: _495  and  _496
REMARK  245  A    between atoms: _501  and  _502
REMARK  246  A    between atoms: _502  and  _503
REMARK  247  A    between atoms: _502  and  _505
REMARK  248  A    between atoms: _505  and  _506
REMARK  249  A    between atoms: _509  and  _510
REMARK  250  A    between atoms: _510  and  _511
REMARK  251  A    between atoms: _510  and  _513
REMARK  252  A    between atoms: _513  and  _514
REMARK  253  A    between atoms: _517  and  _518
REMARK  254  A    between atoms: _518  and  _519
REMARK  255  A    between atoms: _518  and  _521
REMARK  256  A    between atoms: _521  and  _522
REMARK  257  A    between atoms: _525  and  _526
REMARK  258  A    between atoms: _526  and  _527
REMARK  259  A    between atoms: _526  and  _529
REMARK  260  A    between atoms: _529  and  _530
REMARK  261  A    between atoms: _534  and  _535
REMARK  262  A    between atoms: _540  and  _541
REMARK  263  A    between atoms: _541  and  _542
REMARK  264  A    between atoms: _541  and  _544
REMARK  265  A    between atoms: _544  and  _545
REMARK  266  A    between atoms: _548  and  _549
REMARK  267  A    between atoms: _549  and  _552
REMARK  268  A    between atoms: _552  and  _553
REMARK  269  A    between atoms: _553  and  _554
REMARK  270  A    between atoms: _554  and  _555
REMARK  271  A    between atoms: _568  and  _569
REMARK  272  A    between atoms: _576  and  _577
REMARK  273  A    between atoms: _576  and  _579
REMARK  274  A    between atoms: _579  and  _580
REMARK  275  A    between atoms: _583  and  _584
REMARK  276  A    between atoms: _584  and  _585
REMARK  277  A    between atoms: _584  and  _587
REMARK  278  A    between atoms: _587  and  _588
REMARK  279  A    between atoms: _588  and  _589
REMARK  280  A    between atoms: _589  and  _590
REMARK  281  A    between atoms: _594  and  _595
REMARK  282  A    between atoms: _595  and  _596
REMARK  283  A    between atoms: _595  and  _598
REMARK  284  A    between atoms: _601  and  _602
REMARK  285  A    between atoms: _602  and  _603
REMARK  286  A    between atoms: _602  and  _605
REMARK  287  A    between atoms: _605  and  _606
REMARK  288  A    between atoms: _609  and  _610
REMARK  289  A    between atoms: _610  and  _611
REMARK  290  A    between atoms: _610  and  _613
REMARK  291  A    between atoms: _616  and  _617
REMARK  292  A    between atoms: _617  and  _618
REMARK  293  A    between atoms: _617  and  _620
REMARK  294  A    between atoms: _620  and  _621
REMARK  295  A    between atoms: _624  and  _625
REMARK  296  A    between atoms: _625  and  _626
REMARK  297  A    between atoms: _625  and  _628
REMARK  298  A    between atoms: _631  and  _632
REMARK  299  A    between atoms: _632  and  _633
REMARK  300  A    between atoms: _632  and  _635
REMARK  301  A    between atoms: _635  and  _636
REMARK  302  A    between atoms: _639  and  _640
REMARK  303  A    between atoms: _640  and  _641
REMARK  304  A    between atoms: _640  and  _643
REMARK  305  A    between atoms: _646  and  _647
REMARK  306  A    between atoms: _647  and  _648
REMARK  307  A    between atoms: _650  and  _651
REMARK  308  A    between atoms: _651  and  _652
REMARK  309  A    between atoms: _651  and  _654
REMARK  310  A    between atoms: _654  and  _655
REMARK  311  A    between atoms: _658  and  _659
REMARK  312  A    between atoms: _659  and  _660
REMARK  313  A    between atoms: _662  and  _663
REMARK  314  A    between atoms: _663  and  _664
REMARK  315  A    between atoms: _663  and  _666
REMARK  316  A    between atoms: _666  and  _667
REMARK  317  A    between atoms: _667  and  _668
REMARK  318  A    between atoms: _670  and  _671
REMARK  319  A    between atoms: _671  and  _672
REMARK  320  A    between atoms: _671  and  _674
REMARK  321  A    between atoms: _677  and  _678
REMARK  322  A    between atoms: _678  and  _679
REMARK  323  A    between atoms: _678  and  _681
REMARK  324  A    between atoms: _681  and  _682
REMARK  325  A    between atoms: _682  and  _683
REMARK  326  A    between atoms: _683  and  _684
REMARK  327  A    between atoms: _686  and  _687
REMARK  328  A    between atoms: _687  and  _688
REMARK  329  A    between atoms: _691  and  _692
REMARK  330  A    between atoms: _692  and  _693
REMARK  331  A    between atoms: _692  and  _695
REMARK  332  A    between atoms: _695  and  _696
REMARK  333  A    between atoms: _699  and  _700
REMARK  334  A    between atoms: _700  and  _701
REMARK  335  A    between atoms: _700  and  _703
REMARK  336  A    between atoms: _703  and  _704
REMARK  337  A    between atoms: _707  and  _708
REMARK  338  A    between atoms: _708  and  _709
REMARK  339  A    between atoms: _708  and  _711
REMARK  340  A    between atoms: _711  and  _712
REMARK  341  A    between atoms: _715  and  _716
REMARK  342  A    between atoms: _716  and  _717
REMARK  343  A    between atoms: _716  and  _719
REMARK  344  A    between atoms: _719  and  _720
REMARK  345  A    between atoms: _723  and  _724
REMARK  346  A    between atoms: _724  and  _725
REMARK  347  A    between atoms: _724  and  _727
REMARK  348  A    between atoms: _727  and  _728
REMARK  349  A    between atoms: _731  and  _732
REMARK  350  A    between atoms: _732  and  _733
REMARK  351  A    between atoms: _732  and  _735
REMARK  352  A    between atoms: _735  and  _736
REMARK  353  A    between atoms: _739  and  _740
REMARK  354  A    between atoms: _740  and  _741
REMARK  355  A    between atoms: _743  and  _744
REMARK  356  A    between atoms: _744  and  _745
REMARK  357  A    between atoms: _744  and  _747
REMARK  358  A    between atoms: _750  and  _751
REMARK  359  A    between atoms: _751  and  _752
REMARK  360  A    between atoms: _751  and  _754
REMARK  361  A    between atoms: _754  and  _755
REMARK  362  A    between atoms: _758  and  _759
REMARK  363  A    between atoms: _759  and  _760
REMARK  364  A    between atoms: _763  and  _764
REMARK  365  A    between atoms: _764  and  _765
REMARK  366  A    between atoms: _764  and  _767
REMARK  367  A    between atoms: _767  and  _768
REMARK  368  A    between atoms: _768  and  _769
REMARK  369  A    between atoms: _769  and  _770
REMARK  370  A    between atoms: _772  and  _773
REMARK  371  A    between atoms: _773  and  _774
REMARK  372  A    between atoms: _773  and  _776
REMARK  373  A    between atoms: _778  and  _779
REMARK  374  A    between atoms: _779  and  _780
REMARK  375  A    between atoms: _782  and  _783
REMARK  376  A    between atoms: _783  and  _784
REMARK  377  A    between atoms: _783  and  _786
REMARK  378  A    between atoms: _789  and  _790
REMARK  379  A    between atoms: _790  and  _791
REMARK  380  A    between atoms: _790  and  _793
REMARK  381  A    between atoms: _793  and  _794
REMARK  382  A    between atoms: _794  and  _795
REMARK  383  A    between atoms: _795  and  _796
REMARK  384  A    between atoms: _798  and  _799
REMARK  385  A    between atoms: _799  and  _800
REMARK  386  A    between atoms: _803  and  _804
REMARK  387  A    between atoms: _804  and  _805
REMARK  388  A    between atoms: _804  and  _807
REMARK  389  A    between atoms: _807  and  _808
REMARK  390  A    between atoms: _814  and  _815
REMARK  391  A    between atoms: _815  and  _816
REMARK  392  A    between atoms: _815  and  _818
REMARK  393  A    between atoms: _818  and  _819
REMARK  394  A    between atoms: _819  and  _820
REMARK  395  A    between atoms: _822  and  _823
REMARK  396  A    between atoms: _823  and  _824
REMARK  397  A    between atoms: _823  and  _826
REMARK  398  A    between atoms: _826  and  _827
REMARK  399  A    between atoms: _827  and  _828
REMARK  400  A    between atoms: _831  and  _832
REMARK  401  A    between atoms: _832  and  _833
REMARK  402  A    between atoms: _836  and  _837
REMARK  403  A    between atoms: _837  and  _838
REMARK  404  A    between atoms: _837  and  _840
REMARK  405  A    between atoms: _840  and  _841
REMARK  406  A    between atoms: _844  and  _845
REMARK  407  A    between atoms: _845  and  _846
REMARK  408  A    between atoms: _845  and  _848
REMARK  409  A    between atoms: _848  and  _849
REMARK  410  A    between atoms: _849  and  _850
REMARK  411  A    between atoms: _853  and  _854
REMARK  412  A    between atoms: _854  and  _855
REMARK  413  A    between atoms: _858  and  _859
REMARK  414  A    between atoms: _859  and  _860
REMARK  415  A    between atoms: _862  and  _863
REMARK  416  A    between atoms: _863  and  _864
REMARK  417  A    between atoms: _867  and  _868
REMARK  418  A    between atoms: _868  and  _869
REMARK  419  A    between atoms: _868  and  _871
REMARK  420  A    between atoms: _871  and  _872
REMARK  421  A    between atoms: _875  and  _876
REMARK  422  A    between atoms: _876  and  _877
REMARK  423  A    between atoms: _876  and  _879
REMARK  424  A    between atoms: _879  and  _880
REMARK  425  A    between atoms: _883  and  _884
REMARK  426  A    between atoms: _884  and  _887
REMARK  427  A    between atoms: _906  and  _907
REMARK  428  A    between atoms: _906  and  _909
REMARK  429  A    between atoms: _909  and  _910
REMARK  430  A    between atoms: _913  and  _914
REMARK  431  A    between atoms: _914  and  _915
REMARK  432  A    between atoms: _917  and  _918
REMARK  433  A    between atoms: _918  and  _919
REMARK  434  A    between atoms: _918  and  _921
REMARK  435  A    between atoms: _921  and  _922
REMARK  436  A    between atoms: _922  and  _923
REMARK  437  A    between atoms: _926  and  _927
REMARK  438  A    between atoms: _927  and  _928
REMARK  439  A    between atoms: _927  and  _930
REMARK  440  A    between atoms: _930  and  _931
REMARK  441  A    between atoms: _937  and  _938
REMARK  442  A    between atoms: _938  and  _939
REMARK  443  A    between atoms: _941  and  _942
REMARK  444  A    between atoms: _942  and  _943
REMARK  445  A    between atoms: _942  and  _945
REMARK  446  A    between atoms: _948  and  _949
REMARK  447  A    between atoms: _949  and  _950
REMARK  448  A    between atoms: _952  and  _953
REMARK  449  A    between atoms: _953  and  _954
REMARK  450  A    between atoms: _953  and  _956
REMARK  451  A    between atoms: _956  and  _957
REMARK  452  A    between atoms: _963  and  _964
REMARK  453  A    between atoms: _964  and  _965
REMARK  454  A    between atoms: _964  and  _967
REMARK  455  A    between atoms: _967  and  _968
REMARK  456  A    between atoms: _975  and  _976
REMARK  457  A    between atoms: _976  and  _977
REMARK  458  A    between atoms: _976  and  _979
REMARK  459  A    between atoms: _981  and  _982
REMARK  460  A    between atoms: _982  and  _983
REMARK  461  A    between atoms: _986  and  _987
REMARK  462  A    between atoms: _987  and  _988
REMARK  463  A    between atoms: _987  and  _990
REMARK  464  A    between atoms: _990  and  _991
REMARK  465  A    between atoms: _998  and  _999
REMARK  466  A    between atoms: _999  and  _1000
REMARK  467  A    between atoms: _999  and  _1002
REMARK  468  A    between atoms: _1002  and  _1003
REMARK  469  A    between atoms: _1006  and  _1007
REMARK  470  A    between atoms: _1007  and  _1008
REMARK  471  A    between atoms: _1007  and  _1010
REMARK  472  A    between atoms: _1013  and  _1014
REMARK  473  A    between atoms: _1014  and  _1015
REMARK  474  A    between atoms: _1018  and  _1019
REMARK  475  A    between atoms: _1019  and  _1020
REMARK  476  A    between atoms: _1019  and  _1022
REMARK  477  A    between atoms: _1023  and  _1024
REMARK  478  A    between atoms: _1027  and  _1028
REMARK  479  A    between atoms: _1028  and  _1029
REMARK  480  A    between atoms: _1028  and  _1031
REMARK  481  A    between atoms: _1031  and  _1032
REMARK  482  A    between atoms: _1032  and  _1033
REMARK  483  A    between atoms: _1033  and  _1034
REMARK  484  A    between atoms: _1036  and  _1037
REMARK  485  A    between atoms: _1037  and  _1038
REMARK  486  A    between atoms: _1037  and  _1040
REMARK  487  A    between atoms: _1043  and  _1044
REMARK  488  A    between atoms: _1044  and  _1045
REMARK  489  A    between atoms: _1044  and  _1047
REMARK  490  A    between atoms: _1050  and  _1051
REMARK  491  A    between atoms: _1051  and  _1052
REMARK  492  A    between atoms: _1051  and  _1054
REMARK  493  A    between atoms: _1057  and  _1058
REMARK  494  A    between atoms: _1058  and  _1059
REMARK  495  A    between atoms: _1058  and  _1061
REMARK  496  A    between atoms: _1061  and  _1062
REMARK  497  A    between atoms: _1065  and  _1066
REMARK  498  A    between atoms: _1066  and  _1067
REMARK  499  A    between atoms: _1066  and  _1069
REMARK  500  A    between atoms: _1072  and  _1073
REMARK  501  A    between atoms: _1073  and  _1074
REMARK  502  A    between atoms: _1073  and  _1076
REMARK  503  A    between atoms: _1076  and  _1077
REMARK  504  A    between atoms: _1077  and  _1078
REMARK  505  A    between atoms: _1078  and  _1079
REMARK  506  A    between atoms: _1081  and  _1082
REMARK  507  A    between atoms: _1082  and  _1083
REMARK  508  A    between atoms: _1082  and  _1085
REMARK  509  A    between atoms: _1085  and  _1086
REMARK  510  A    between atoms: _1091  and  _1092
REMARK  511  A    between atoms: _1092  and  _1093
REMARK  512  A    between atoms: _1092  and  _1095
REMARK  513  A    between atoms: _1095  and  _1096
REMARK  514  A    between atoms: _1099  and  _1100
REMARK  515  A    between atoms: _1100  and  _1101
REMARK  516  A    between atoms: _1100  and  _1103
REMARK  517  A    between atoms: _1103  and  _1104
REMARK  518  A    between atoms: _1107  and  _1108
REMARK  519  A    between atoms: _1108  and  _1111
REMARK  520  A    between atoms: _1111  and  _1112
REMARK  521  A    between atoms: _1125  and  _1127
REMARK  522  A    between atoms: _1134  and  _1135
REMARK  523  A    between atoms: _1134  and  _1137
REMARK  524  A    between atoms: _1137  and  _1138
REMARK  525  A    between atoms: _1138  and  _1139
REMARK  526  A    between atoms: _1142  and  _1143
REMARK  527  A    between atoms: _1143  and  _1144
REMARK  528  A    between atoms: _1143  and  _1146
REMARK  529  A    between atoms: _1146  and  _1147
REMARK  530  A    between atoms: _1154  and  _1155
REMARK  531  A    between atoms: _1155  and  _1156
REMARK  532  A    between atoms: _1159  and  _1160
REMARK  533  A    between atoms: _1160  and  _1161
REMARK  534  A    between atoms: _1160  and  _1163
REMARK  535  A    between atoms: _1163  and  _1164
REMARK  536  A    between atoms: _1173  and  _1174
REMARK  537  A    between atoms: _1174  and  _1175
REMARK  538  A    between atoms: _1174  and  _1177
REMARK  539  A    between atoms: _1177  and  _1178
REMARK  540  A    between atoms: _1178  and  _1179
REMARK  541  A    between atoms: _1182  and  _1183
REMARK  542  A    between atoms: _1183  and  _1184
REMARK  543  A    between atoms: _1183  and  _1186
REMARK  544  A    between atoms: _1188  and  _1189
REMARK  545  A    between atoms: _1189  and  _1190
REMARK  546  A    between atoms: _1189  and  _1192
REMARK  547  A    between atoms: _1194  and  _1195
REMARK  548  A    between atoms: _1195  and  _1196
REMARK  549  A    between atoms: _1199  and  _1200
REMARK  550  A    between atoms: _1200  and  _1201
REMARK  551  A    between atoms: _1203  and  _1204
REMARK  552  A    between atoms: _1204  and  _1205
REMARK  553  A    between atoms: _1207  and  _1208
REMARK  554  A    between atoms: _1208  and  _1209
REMARK  555  A    between atoms: _1208  and  _1211
REMARK  556  A    between atoms: _1213  and  _1214
REMARK  557  A    between atoms: _1214  and  _1215
REMARK  558  A    between atoms: _1214  and  _1217
REMARK  559  A    between atoms: _1217  and  _1218
REMARK  560  A    between atoms: _1224  and  _1225
REMARK  561  A    between atoms: _1225  and  _1226
REMARK  562  A    between atoms: _1225  and  _1228
REMARK  563  A    between atoms: _1231  and  _1232
REMARK  564  A    between atoms: _1232  and  _1233
REMARK  565  A    between atoms: _1232  and  _1235
REMARK  566  A    between atoms: _1238  and  _1239
REMARK  567  A    between atoms: _1239  and  _1240
REMARK  568  A    between atoms: _1239  and  _1242
REMARK  569  A    between atoms: _1242  and  _1243
REMARK  570  A    between atoms: _1243  and  _1244
REMARK  571  A    between atoms: _1244  and  _1245
REMARK  572  A    between atoms: _1249  and  _1250
REMARK  573  A    between atoms: _1250  and  _1251
REMARK  574  A    between atoms: _1250  and  _1253
REMARK  575  A    between atoms: _1256  and  _1257
REMARK  576  A    between atoms: _1257  and  _1258
REMARK  577  A    between atoms: _1257  and  _1260
REMARK  578  A    between atoms: _1260  and  _1261
REMARK  579  A    between atoms: _1264  and  _1265
REMARK  580  A    between atoms: _1265  and  _1266
REMARK  581  A    between atoms: _1265  and  _1268
REMARK  582  A    between atoms: _1271  and  _1272
REMARK  583  A    between atoms: _1272  and  _1273
REMARK  584  A    between atoms: _1275  and  _1276
REMARK  585  A    between atoms: _1276  and  _1277
REMARK  586  A    between atoms: _1276  and  _1279
REMARK  587  A    between atoms: _1279  and  _1280
REMARK  588  A    between atoms: _1280  and  _1281
REMARK  589  A    between atoms: _1285  and  _1286
REMARK  590  A    between atoms: _1291  and  _1293
REMARK  591  A    between atoms: _1298  and  _1299
REMARK  592  A    between atoms: _1299  and  _1301
REMARK  593  A    between atoms: _1300  and  _1301
REMARK  594  A    between atoms: _1304  and  _1305
REMARK  595  A    between atoms: _1305  and  _1306
REMARK  596  A    between atoms: _1308  and  _1309
REMARK  597  A    between atoms: _1309  and  _1310
REMARK  598  A    between atoms: _1309  and  _1312
REMARK  599  A    between atoms: _1312  and  _1313
REMARK  600  A    between atoms: _1313  and  _1314
REMARK  601  A    between atoms: _1314  and  _1315
REMARK  602  A    between atoms: _1319  and  _1320
REMARK  603  A    between atoms: _1320  and  _1321
REMARK  604  A    between atoms: _1323  and  _1324
REMARK  605  A    between atoms: _1324  and  _1325
REMARK  606  A    between atoms: _1324  and  _1327
REMARK  607  A    between atoms: _1330  and  _1331
REMARK  608  A    between atoms: _1331  and  _1332
REMARK  609  A    between atoms: _1331  and  _1334
REMARK  610  A    between atoms: _1334  and  _1335
REMARK  611  A    between atoms: _1335  and  _1336
REMARK  612  A    between atoms: _1336  and  _1337
REMARK  613  A    between atoms: _1339  and  _1340
REMARK  614  A    between atoms: _1340  and  _1341
REMARK  615  A    between atoms: _1340  and  _1343
REMARK  616  A    between atoms: _1346  and  _1347
REMARK  617  A    between atoms: _1347  and  _1348
REMARK  618  A    between atoms: _1347  and  _1350
REMARK  619  A    between atoms: _1350  and  _1351
REMARK  620  A    between atoms: _1354  and  _1355
REMARK  621  A    between atoms: _1355  and  _1356
REMARK  622  A    between atoms: _1355  and  _1358
REMARK  623  A    between atoms: _1358  and  _1359
REMARK  624  A    between atoms: _1362  and  _1363
REMARK  625  A    between atoms: _1363  and  _1364
REMARK  626  A    between atoms: _1363  and  _1366
REMARK  627  A    between atoms: _1366  and  _1367
REMARK  628  A    between atoms: _1372  and  _1373
REMARK  629  A    between atoms: _1373  and  _1374
REMARK  630  A    between atoms: _1373  and  _1376
REMARK  631  A    between atoms: _1376  and  _1377
REMARK  632  A    between atoms: _1380  and  _1381
REMARK  633  A    between atoms: _1381  and  _1382
REMARK  634  A    between atoms: _1381  and  _1384
REMARK  635  A    between atoms: _1384  and  _1385
REMARK  636  A    between atoms: _1385  and  _1386
REMARK  637  A    between atoms: _1386  and  _1387
REMARK  638  A    between atoms: _1389  and  _1390
REMARK  639  A    between atoms: _1390  and  _1391
REMARK  640  A    between atoms: _1390  and  _1393
REMARK  641  A    between atoms: _1393  and  _1394
REMARK  642  A    between atoms: _1394  and  _1395
REMARK  643  A    between atoms: _1398  and  _1399
REMARK  644  A    between atoms: _1399  and  _1400
REMARK  645  A    between atoms: _1399  and  _1402
REMARK  646  A    between atoms: _1402  and  _1403
REMARK  647  A    between atoms: _1406  and  _1407
REMARK  648  A    between atoms: _1407  and  _1408
REMARK  649  A    between atoms: _1407  and  _1410
REMARK  650  A    between atoms: _1410  and  _1411
REMARK  651  A    between atoms: _1411  and  _1412
REMARK  652  A    between atoms: _1415  and  _1416
REMARK  653  A    between atoms: _1416  and  _1417
REMARK  654  A    between atoms: _1416  and  _1419
REMARK  655  A    between atoms: _1422  and  _1423
REMARK  656  A    between atoms: _1423  and  _1424
REMARK  657  A    between atoms: _1423  and  _1426
REMARK  658  A    between atoms: _1426  and  _1427
REMARK  659  A    between atoms: _1427  and  _1428
REMARK  660  A    between atoms: _1431  and  _1432
REMARK  661  A    between atoms: _1432  and  _1433
REMARK  662  A    between atoms: _1432  and  _1435
REMARK  663  A    between atoms: _1435  and  _1436
REMARK  664  A    between atoms: _1443  and  _1444
REMARK  665  A    between atoms: _1444  and  _1445
REMARK  666  A    between atoms: _1444  and  _1447
REMARK  667  A    between atoms: _1447  and  _1448
REMARK  668  A    between atoms: _1451  and  _1452
REMARK  669  A    between atoms: _1452  and  _1453
REMARK  670  A    between atoms: _1452  and  _1455
REMARK  671  A    between atoms: _1455  and  _1456
REMARK  672  A    between atoms: _1456  and  _1457
REMARK  673  A    between atoms: _1460  and  _1461
REMARK  674  A    between atoms: _1461  and  _1462
REMARK  675  A    between atoms: _1461  and  _1464
REMARK  676  A    between atoms: _1464  and  _1465
REMARK  677  A    between atoms: _1465  and  _1466
REMARK  678  A    between atoms: _1469  and  _1470
REMARK  679  A    between atoms: _1470  and  _1471
REMARK  680  A    between atoms: _1470  and  _1473
REMARK  681  A    between atoms: _1473  and  _1474
REMARK  682  A    between atoms: _1474  and  _1475
REMARK  683  A    between atoms: _1475  and  _1476
REMARK  684  A    between atoms: _1480  and  _1481
REMARK  685  A    between atoms: _1481  and  _1482
REMARK  686  A    between atoms: _1481  and  _1484
REMARK  687  A    between atoms: _1484  and  _1485
REMARK  688  A    between atoms: _1485  and  _1486
REMARK  689  A    between atoms: _1486  and  _1487
REMARK  690  A    between atoms: _1491  and  _1492
REMARK  691  A    between atoms: _1492  and  _1493
REMARK  692  A    between atoms: _1492  and  _1495
REMARK  693  A    between atoms: _1495  and  _1496
REMARK  694  A    between atoms: _1499  and  _1500
REMARK  695  A    between atoms: _1500  and  _1501
REMARK  696  A    between atoms: _1500  and  _1503
REMARK  697  A    between atoms: _1503  and  _1504
REMARK  698  A    between atoms: _1504  and  _1505
REMARK  699  A    between atoms: _1505  and  _1506
REMARK  700  A    between atoms: _1508  and  _1509
REMARK  701  A    between atoms: _1509  and  _1510
REMARK  702  A    between atoms: _1509  and  _1512
REMARK  703  A    between atoms: _1512  and  _1513
REMARK  704  A    between atoms: _1513  and  _1514
REMARK  705  A    between atoms: _1517  and  _1518
REMARK  706  A    between atoms: _1518  and  _1519
REMARK  707  A    between atoms: _1518  and  _1521
REMARK  708  A    between atoms: _1521  and  _1522
REMARK  709  A    between atoms: _1525  and  _1526
REMARK  710  A    between atoms: _1526  and  _1527
REMARK  711  A    between atoms: _1526  and  _1529
REMARK  712  A    between atoms: _1532  and  _1533
REMARK  713  A    between atoms: _1533  and  _1534
REMARK  714  A    between atoms: _1533  and  _1536
REMARK  715  A    between atoms: _1536  and  _1537
REMARK  716  A    between atoms: _1537  and  _1538
REMARK  717  A    between atoms: _1538  and  _1539
REMARK  718  A    between atoms: _1541  and  _1542
REMARK  719  A    between atoms: _1542  and  _1543
REMARK  720  A    between atoms: _1542  and  _1545
REMARK  721  A    between atoms: _1545  and  _1546
REMARK  722  A    between atoms: _1546  and  _1547
REMARK  723  A    between atoms: _1547  and  _1548
REMARK  724  A    between atoms: _1550  and  _1551
REMARK  725  A    between atoms: _1551  and  _1552
REMARK  726  A    between atoms: _1551  and  _1554
REMARK  727  A    between atoms: _1554  and  _1555
REMARK  728  A    between atoms: _1560  and  _1561
REMARK  729  A    between atoms: _1561  and  _1562
REMARK  730  A    between atoms: _1561  and  _1564
REMARK  731  A    between atoms: _1566  and  _1567
REMARK  732  A    between atoms: _1567  and  _1568
REMARK  733  A    between atoms: _1567  and  _1570
REMARK  734  A    between atoms: _1570  and  _1571
REMARK  735  A    between atoms: _1571  and  _1572
REMARK  736  A    between atoms: _1575  and  _1576
REMARK  737  A    between atoms: _1576  and  _1577
REMARK  738  A    between atoms: _1576  and  _1579
REMARK  739  A    between atoms: _1579  and  _1580
REMARK  740  A    between atoms: _1586  and  _1587
REMARK  741  A    between atoms: _1587  and  _1588
REMARK  742  A    between atoms: _1587  and  _1590
REMARK  743  A    between atoms: _1590  and  _1591
REMARK  744  A    between atoms: _1594  and  _1595
REMARK  745  A    between atoms: _1595  and  _1596
REMARK  746  A    between atoms: _1598  and  _1599
REMARK  747  A    between atoms: _1599  and  _1600
REMARK  748  A    between atoms: _1599  and  _1602
REMARK  749  A    between atoms: _1602  and  _1603
REMARK  750  A    between atoms: _1611  and  _1612
REMARK  751  A    between atoms: _1617  and  _1618
REMARK  752  A    between atoms: _1618  and  _1619
REMARK  753  A    between atoms: _1618  and  _1621
REMARK  754  A    between atoms: _1621  and  _1622
REMARK  755  A    between atoms: _1625  and  _1626
REMARK  756  A    between atoms: _1626  and  _1627
REMARK  757  A    between atoms: _1626  and  _1629
REMARK  758  A    between atoms: _1632  and  _1633
REMARK  759  A    between atoms: _1633  and  _1634
REMARK  760  A    between atoms: _1633  and  _1636
REMARK  761  A    between atoms: _1636  and  _1637
REMARK  762  A    between atoms: _1640  and  _1641
REMARK  763  A    between atoms: _1641  and  _1642
REMARK  764  A    between atoms: _1641  and  _1644
REMARK  765  A    between atoms: _1644  and  _1645
REMARK  766  A    between atoms: _1651  and  _1652
REMARK  767  A    between atoms: _1652  and  _1653
REMARK  768  A    between atoms: _1652  and  _1655
REMARK  769  A    between atoms: _1658  and  _1659
REMARK  770  A    between atoms: _1659  and  _1660
REMARK  771  A    between atoms: _1659  and  _1662
REMARK  772  A    between atoms: _1662  and  _1663
REMARK  773  A    between atoms: _1663  and  _1664
REMARK  774  A    between atoms: _1667  and  _1668
REMARK  775  A    between atoms: _1668  and  _1669
REMARK  776  A    between atoms: _1668  and  _1671
REMARK  777  A    between atoms: _1671  and  _1672
REMARK  778  A    between atoms: _1672  and  _1673
REMARK  779  A    between atoms: _1673  and  _1674
REMARK                            x       y       z     vdW  Elec       q    Type
REMARK                         _______ _______ _______ _____ _____    ______ ____
ROOT
ATOM      1  O   HOH     1       0.606  27.573  11.601  0.00  0.00    +0.000 OA
ENDROOT
TORSDOF 0
REMARK  Name = /Users/mlugowska/PhD/ML_residence_time_prediction/protein_files/5NYH_protein.pdb
REMARK  779 active torsions:
REMARK  status: ('A' for Active; 'I' for Inactive)
REMARK    1  A    between atoms: _2  and  _3
REMARK    2  A    between atoms: _2  and  _5
REMARK    3  A    between atoms: _5  and  _6
REMARK    4  A    between atoms: _6  and  _7
REMARK    5  A    between atoms: _10  and  _11
REMARK    6  A    between atoms: _11  and  _12
REMARK    7  A    between atoms: _11  and  _14
REMARK    8  A    between atoms: _17  and  _18
REMARK    9  A    between atoms: _18  and  _19
REMARK   10  A    between atoms: _18  and  _21
REMARK   11  A    between atoms: _21  and  _22
REMARK   12  A    between atoms: _22  and  _23
REMARK   13  A    between atoms: _26  and  _27
REMARK   14  A    between atoms: _27  and  _28
REMARK   15  A    between atoms: _27  and  _30
REMARK   16  A    between atoms: _33  and  _34
REMARK   17  A    between atoms: _34  and  _35
REMARK   18  A    between atoms: _34  and  _37
REMARK   19  A    between atoms: _37  and  _38
REMARK   20  A    between atoms: _44  and  _45
REMARK   21  A    between atoms: _45  and  _46
REMARK   22  A    between atoms: _49  and  _50
REMARK   23  A    between atoms: _50  and  _51
REMARK   24  A    between atoms: _50  and  _53
REMARK   25  A    between atoms: _53  and  _54
REMARK   26  A    between atoms: _60  and  _61
REMARK   27  A    between atoms: _61  and  _62
REMARK   28  A    between atoms: _61  and  _64
REMARK   29  A    between atoms: _64  and  _65
REMARK   30  A    between atoms: _65  and  _66
REMARK   31  A    between atoms: _69  and  _70
REMARK   32  A    between atoms: _70  and  _71
REMARK   33  A    between atoms: _74  and  _75
REMARK   34  A    between atoms: _75  and  _76
REMARK   35  A    between atoms: _75  and  _78
REMARK   36  A    between atoms: _78  and  _79
REMARK   37  A    between atoms: _79  and  _80
REMARK   38  A    between atoms: _83  and  _84
REMARK   39  A    between atoms: _84  and  _85
REMARK   40  A    between atoms: _84  and  _87
REMARK   41  A    between atoms: _87  and  _88
REMARK   42  A    between atoms: _91  and  _92
REMARK   43  A    between atoms: _92  and  _93
REMARK   44  A    between atoms: _96  and  _97
REMARK   45  A    between atoms: _97  and  _98
REMARK   46  A    between atoms: _97  and  _100
REMARK   47  A    between atoms: _100  and  _101
REMARK   48  A    between atoms: _101  and  _102
REMARK   49  A    between atoms: _105  and  _106
REMARK   50  A    between atoms: _106  and  _107
REMARK   51  A    between atoms: _106  and  _109
REMARK   52  A    between atoms: _109  and  _110
REMARK   53  A    between atoms: _113  and  _114
REMARK   54  A    between atoms: _114  and  _115
REMARK   55  A    between atoms: _114  and  _117
REMARK   56  A    between atoms: _117  and  _118
REMARK   57  A    between atoms: _118  and  _119
REMARK   58  A    between atoms: _121  and  _122
REMARK   59  A    between atoms: _122  and  _123
REMARK   60  A    between atoms: _122  and  _125
REMARK   61  A    between atoms: _127  and  _128
REMARK   62  A    between atoms: _128  and  _129
REMARK   63  A    between atoms: _128  and  _131
REMARK   64  A    between atoms: _131  and  _132
REMARK   65  A    between atoms: _135  and  _136
REMARK   66  A    between atoms: _136  and  _137
REMARK   67  A    between atoms: _136  and  _139
REMARK   68  A    between atoms: _139  and  _140
REMARK   69  A    between atoms: _143  and  _144
REMARK   70  A    between atoms: _144  and  _145
REMARK   71  A    between atoms: _144  and  _147
REMARK   72  A    between atoms: _147  and  _148
REMARK   73  A    between atoms: _151  and  _152
REMARK   74  A    between atoms: _152  and  _153
REMARK   75  A    between atoms: _152  and  _155
REMARK   76  A    between atoms: _155  and  _156
REMARK   77  A    between atoms: _159  and  _160
REMARK   78  A    between atoms: _160  and  _161
REMARK   79  A    between atoms: _160  and  _163
REMARK   80  A    between atoms: _166  and  _167
REMARK   81  A    between atoms: _167  and  _168
REMARK   82  A    between atoms: _167  and  _170
REMARK   83  A    between atoms: _170  and  _171
REMARK   84  A    between atoms: _177  and  _178
REMARK   85  A    between atoms: _178  and  _179
REMARK   86  A    between atoms: _178  and  _181
REMARK   87  A    between atoms: _181  and  _182
REMARK   88  A    between atoms: _189  and  _190
REMARK   89  A    between atoms: _190  and  _191
REMARK   90  A    between atoms: _190  and  _193
REMARK   91  A    between atoms: _195  and  _196
REMARK   92  A    between atoms: _196  and  _197
REMARK   93  A    between atoms: _196  and  _199
REMARK   94  A    between atoms: _199  and  _200
REMARK   95  A    between atoms: _203  and  _204
REMARK   96  A    between atoms: _204  and  _205
REMARK   97  A    between atoms: _204  and  _207
REMARK   98  A    between atoms: _207  and  _208
REMARK   99  A    between atoms: _208  and  _209
REMARK  100  A    between atoms: _209  and  _210
REMARK  101  A    between atoms: _212  and  _213
REMARK  102  A    between atoms: _213  and  _214
REMARK  103  A    between atoms: _213  and  _216
REMARK  104  A    between atoms: _216  and  _217
REMARK  105  A    between atoms: _217  and  _218
REMARK  106  A    between atoms: _221  and  _222
REMARK  107  A    between atoms: _222  and  _223
REMARK  108  A    between atoms: _222  and  _225
REMARK  109  A    between atoms: _225  and  _226
REMARK  110  A    between atoms: _229  and  _230
REMARK  111  A    between atoms: _230  and  _231
REMARK  112  A    between atoms: _230  and  _233
REMARK  113  A    between atoms: _233  and  _234
REMARK  114  A    between atoms: _240  and  _241
REMARK  115  A    between atoms: _241  and  _242
REMARK  116  A    between atoms: _241  and  _244
REMARK  117  A    between atoms: _244  and  _245
REMARK  118  A    between atoms: _248  and  _249
REMARK  119  A    between atoms: _249  and  _250
REMARK  120  A    between atoms: _249  and  _252
REMARK  121  A    between atoms: _252  and  _253
REMARK  122  A    between atoms: _253  and  _254
REMARK  123  A    between atoms: _254  and  _255
REMARK  124  A    between atoms: _259  and  _260
REMARK  125  A    between atoms: _260  and  _261
REMARK  126  A    between atoms: _260  and  _263
REMARK  127  A    between atoms: _263  and  _264
REMARK  128  A    between atoms: _264  and  _265
REMARK  129  A    between atoms: _268  and  _269
REMARK  130  A    between atoms: _269  and  _270
REMARK  131  A    between atoms: _269  and  _272
REMARK  132  A    between atoms: _272  and  _273
REMARK  133  A    between atoms: _276  and  _277
REMARK  134  A    between atoms: _277  and  _278
REMARK  135  A    between atoms: _277  and  _280
REMARK  136  A    between atoms: _280  and  _281
REMARK  137  A    between atoms: _284  and  _285
REMARK  138  A    between atoms: _285  and  _286
REMARK  139  A    between atoms: _285  and  _288
REMARK  140  A    between atoms: _290  and  _291
REMARK  141  A    between atoms: _291  and  _292
REMARK  142  A    between atoms: _291  and  _294
REMARK  143  A    between atoms: _294  and  _295
REMARK  144  A    between atoms: _298  and  _299
REMARK  145  A    between atoms: _299  and  _300
REMARK  146  A    between atoms: _299  and  _302
REMARK  147  A    between atoms: _304  and  _305
REMARK  148  A    between atoms: _305  and  _306
REMARK  149  A    between atoms: _305  and  _308
REMARK  150  A    between atoms: _310  and  _311
REMARK  151  A    between atoms: _311  and  _312
REMARK  152  A    between atoms: _311  and  _314
REMARK  153  A    between atoms: _314  and  _315
REMARK  154  A    between atoms: _318  and  _319
REMARK  155  A    between atoms: _319  and  _320
REMARK  156  A    between atoms: _323  and  _324
REMARK  157  A    between atoms: _324  and  _325
REMARK  158  A    between atoms: _324  and  _327
REMARK  159  A    between atoms: _327  and  _328
REMARK  160  A    between atoms: _331  and  _332
REMARK  161  A    between atoms: _332  and  _333
REMARK  162  A    between atoms: _332  and  _335
REMARK  163  A    between atoms: _335  and  _336
REMARK  164  A    between atoms: _339  and  _340
REMARK  165  A    between atoms: _340  and  _341
REMARK  166  A    between atoms: _340  and  _343
REMARK  167  A    between atoms: _343  and  _344
REMARK  168  A    between atoms: _344  and  _345
REMARK  169  A    between atoms: _345  and  _346
REMARK  170  A    between atoms: _348  and  _349
REMARK  171  A    between atoms: _349  and  _350
REMARK  172  A    between atoms: _349  and  _352
REMARK  173  A    between atoms: _352  and  _353
REMARK  174  A    between atoms: _356  and  _357
REMARK  175  A    between atoms: _357  and  _358
REMARK  176  A    between atoms: _357  and  _360
REMARK  177  A    between atoms: _360  and  _361
REMARK  178  A    between atoms: _361  and  _362
REMARK  179  A    between atoms: _362  and  _363
REMARK  180  A    between atoms: _367  and  _368
REMARK  181  A    between atoms: _368  and  _369
REMARK  182  A    between atoms: _368  and  _371
REMARK  183  A    between atoms: _371  and  _372
REMARK  184  A    between atoms: _379  and  _380
REMARK  185  A    between atoms: _380  and  _381
REMARK  186  A    between atoms: _380  and  _383
REMARK  187  A    between atoms: _383  and  _384
REMARK  188  A    between atoms: _384  and  _385
REMARK  189  A    between atoms: _388  and  _389
REMARK  190  A    between atoms: _389  and  _390
REMARK  191  A    between atoms: _389  and  _392
REMARK  192  A    between atoms: _394  and  _395
REMARK  193  A    between atoms: _395  and  _396
REMARK  194  A    between atoms: _395  and  _398
REMARK  195  A    between atoms: _398  and  _399
REMARK  196  A    between atoms: _402  and  _403
REMARK  197  A    between atoms: _403  and  _404
REMARK  198  A    between atoms: _403  and  _406
REMARK  199  A    between atoms: _409  and  _410
REMARK  200  A    between atoms: _410  and  _411
REMARK  201  A    between atoms: _410  and  _413
REMARK  202  A    between atoms: _413  and  _414
REMARK  203  A    between atoms: _418  and  _419
REMARK  204  A    between atoms: _424  and  _425
REMARK  205  A    between atoms: _425  and  _426
REMARK  206  A    between atoms: _425  and  _428
REMARK  207  A    between atoms: _430  and  _431
REMARK  208  A    between atoms: _431  and  _432
REMARK  209  A    between atoms: _431  and  _434
REMARK  210  A    between atoms: _434  and  _435
REMARK  211  A    between atoms: _435  and  _436
REMARK  212  A    between atoms: _436  and  _437
REMARK  213  A    between atoms: _439  and  _440
REMARK  214  A    between atoms: _440  and  _441
REMARK  215  A    between atoms: _440  and  _443
REMARK  216  A    between atoms: _443  and  _444
REMARK  217  A    between atoms: _447  and  _448
REMARK  218  A    between atoms: _448  and  _449
REMARK  219  A    between atoms: _448  and  _451
REMARK  220  A    between atoms: _451  and  _452
REMARK  221  A    between atoms: _455  and  _456
REMARK  222  A    between atoms: _456  and  _457
REMARK  223  A    between atoms: _456  and  _459
REMARK  224  A    between atoms: _461  and  _462
REMARK  225  A    between atoms: _462  and  _463
REMARK  226  A    between atoms: _465  and  _466
REMARK  227  A    between atoms: _466  and  _467
REMARK  228  A    between atoms: _466  and  _469
REMARK  229  A    between atoms: _469  and  _470
REMARK  230  A    between atoms: _470  and  _471
REMARK  231  A    between atoms: _471  and  _472
REMARK  232  A    between atoms: _474  and  _475
REMARK  233  A    between atoms: _475  and  _476
REMARK  234  A    between atoms: _475  and  _478
REMARK  235  A    between atoms: _478  and  _479
REMARK  236  A    between atoms: _479  and  _480
REMARK  237  A    between atoms: _483  and  _484
REMARK  238  A    between atoms: _484  and  _485
REMARK  239  A    between atoms: _484  and  _487
REMARK  240  A    between atoms: _487  and  _488
REMARK  241  A    between atoms: _491  and  _492
REMARK  242  A    between atoms: _492  and  _493
REMARK  243  A    between atoms: _492  and  _495
REMARK  244  A    between atoms: _495  and  _496
REMARK  245  A    between atoms: _501  and  _502
REMARK  246  A    between atoms: _502  and  _503
REMARK  247  A    between atoms: _502  and  _505
REMARK  248  A    between atoms: _505  and  _506
REMARK  249  A    between atoms: _509  and  _510
REMARK  250  A    between atoms: _510  and  _511
REMARK  251  A    between atoms: _510  and  _513
REMARK  252  A    between atoms: _513  and  _514
REMARK  253  A    between atoms: _517  and  _518
REMARK  254  A    between atoms: _518  and  _519
REMARK  255  A    between atoms: _518  and  _521
REMARK  256  A    between atoms: _521  and  _522
REMARK  257  A    between atoms: _525  and  _526
REMARK  258  A    between atoms: _526  and  _527
REMARK  259  A    between atoms: _526  and  _529
REMARK  260  A    between atoms: _529  and  _530
REMARK  261  A    between atoms: _534  and  _535
REMARK  262  A    between atoms: _540  and  _541
REMARK  263  A    between atoms: _541  and  _542
REMARK  264  A    between atoms: _541  and  _544
REMARK  265  A    between atoms: _544  and  _545
REMARK  266  A    between atoms: _548  and  _549
REMARK  267  A    between atoms: _549  and  _552
REMARK  268  A    between atoms: _552  and  _553
REMARK  269  A    between atoms: _553  and  _554
REMARK  270  A    between atoms: _554  and  _555
REMARK  271  A    between atoms: _568  and  _569
REMARK  272  A    between atoms: _576  and  _577
REMARK  273  A    between atoms: _576  and  _579
REMARK  274  A    between atoms: _579  and  _580
REMARK  275  A    between atoms: _583  and  _584
REMARK  276  A    between atoms: _584  and  _585
REMARK  277  A    between atoms: _584  and  _587
REMARK  278  A    between atoms: _587  and  _588
REMARK  279  A    between atoms: _588  and  _589
REMARK  280  A    between atoms: _589  and  _590
REMARK  281  A    between atoms: _594  and  _595
REMARK  282  A    between atoms: _595  and  _596
REMARK  283  A    between atoms: _595  and  _598
REMARK  284  A    between atoms: _601  and  _602
REMARK  285  A    between atoms: _602  and  _603
REMARK  286  A    between atoms: _602  and  _605
REMARK  287  A    between atoms: _605  and  _606
REMARK  288  A    between atoms: _609  and  _610
REMARK  289  A    between atoms: _610  and  _611
REMARK  290  A    between atoms: _610  and  _613
REMARK  291  A    between atoms: _616  and  _617
REMARK  292  A    between atoms: _617  and  _618
REMARK  293  A    between atoms: _617  and  _620
REMARK  294  A    between atoms: _620  and  _621
REMARK  295  A    between atoms: _624  and  _625
REMARK  296  A    between atoms: _625  and  _626
REMARK  297  A    between atoms: _625  and  _628
REMARK  298  A    between atoms: _631  and  _632
REMARK  299  A    between atoms: _632  and  _633
REMARK  300  A    between atoms: _632  and  _635
REMARK  301  A    between atoms: _635  and  _636
REMARK  302  A    between atoms: _639  and  _640
REMARK  303  A    between atoms: _640  and  _641
REMARK  304  A    between atoms: _640  and  _643
REMARK  305  A    between atoms: _646  and  _647
REMARK  306  A    between atoms: _647  and  _648
REMARK  307  A    between atoms: _650  and  _651
REMARK  308  A    between atoms: _651  and  _652
REMARK  309  A    between atoms: _651  and  _654
REMARK  310  A    between atoms: _654  and  _655
REMARK  311  A    between atoms: _658  and  _659
REMARK  312  A    between atoms: _659  and  _660
REMARK  313  A    between atoms: _662  and  _663
REMARK  314  A    between atoms: _663  and  _664
REMARK  315  A    between atoms: _663  and  _666
REMARK  316  A    between atoms: _666  and  _667
REMARK  317  A    between atoms: _667  and  _668
REMARK  318  A    between atoms: _670  and  _671
REMARK  319  A    between atoms: _671  and  _672
REMARK  320  A    between atoms: _671  and  _674
REMARK  321  A    between atoms: _677  and  _678
REMARK  322  A    between atoms: _678  and  _679
REMARK  323  A    between atoms: _678  and  _681
REMARK  324  A    between atoms: _681  and  _682
REMARK  325  A    between atoms: _682  and  _683
REMARK  326  A    between atoms: _683  and  _684
REMARK  327  A    between atoms: _686  and  _687
REMARK  328  A    between atoms: _687  and  _688
REMARK  329  A    between atoms: _691  and  _692
REMARK  330  A    between atoms: _692  and  _693
REMARK  331  A    between atoms: _692  and  _695
REMARK  332  A    between atoms: _695  and  _696
REMARK  333  A    between atoms: _699  and  _700
REMARK  334  A    between atoms: _700  and  _701
REMARK  335  A    between atoms: _700  and  _703
REMARK  336  A    between atoms: _703  and  _704
REMARK  337  A    between atoms: _707  and  _708
REMARK  338  A    between atoms: _708  and  _709
REMARK  339  A    between atoms: _708  and  _711
REMARK  340  A    between atoms: _711  and  _712
REMARK  341  A    between atoms: _715  and  _716
REMARK  342  A    between atoms: _716  and  _717
REMARK  343  A    between atoms: _716  and  _719
REMARK  344  A    between atoms: _719  and  _720
REMARK  345  A    between atoms: _723  and  _724
REMARK  346  A    between atoms: _724  and  _725
REMARK  347  A    between atoms: _724  and  _727
REMARK  348  A    between atoms: _727  and  _728
REMARK  349  A    between atoms: _731  and  _732
REMARK  350  A    between atoms: _732  and  _733
REMARK  351  A    between atoms: _732  and  _735
REMARK  352  A    between atoms: _735  and  _736
REMARK  353  A    between atoms: _739  and  _740
REMARK  354  A    between atoms: _740  and  _741
REMARK  355  A    between atoms: _743  and  _744
REMARK  356  A    between atoms: _744  and  _745
REMARK  357  A    between atoms: _744  and  _747
REMARK  358  A    between atoms: _750  and  _751
REMARK  359  A    between atoms: _751  and  _752
REMARK  360  A    between atoms: _751  and  _754
REMARK  361  A    between atoms: _754  and  _755
REMARK  362  A    between atoms: _758  and  _759
REMARK  363  A    between atoms: _759  and  _760
REMARK  364  A    between atoms: _763  and  _764
REMARK  365  A    between atoms: _764  and  _765
REMARK  366  A    between atoms: _764  and  _767
REMARK  367  A    between atoms: _767  and  _768
REMARK  368  A    between atoms: _768  and  _769
REMARK  369  A    between atoms: _769  and  _770
REMARK  370  A    between atoms: _772  and  _773
REMARK  371  A    between atoms: _773  and  _774
REMARK  372  A    between atoms: _773  and  _776
REMARK  373  A    between atoms: _778  and  _779
REMARK  374  A    between atoms: _779  and  _780
REMARK  375  A    between atoms: _782  and  _783
REMARK  376  A    between atoms: _783  and  _784
REMARK  377  A    between atoms: _783  and  _786
REMARK  378  A    between atoms: _789  and  _790
REMARK  379  A    between atoms: _790  and  _791
REMARK  380  A    between atoms: _790  and  _793
REMARK  381  A    between atoms: _793  and  _794
REMARK  382  A    between atoms: _794  and  _795
REMARK  383  A    between atoms: _795  and  _796
REMARK  384  A    between atoms: _798  and  _799
REMARK  385  A    between atoms: _799  and  _800
REMARK  386  A    between atoms: _803  and  _804
REMARK  387  A    between atoms: _804  and  _805
REMARK  388  A    between atoms: _804  and  _807
REMARK  389  A    between atoms: _807  and  _808
REMARK  390  A    between atoms: _814  and  _815
REMARK  391  A    between atoms: _815  and  _816
REMARK  392  A    between atoms: _815  and  _818
REMARK  393  A    between atoms: _818  and  _819
REMARK  394  A    between atoms: _819  and  _820
REMARK  395  A    between atoms: _822  and  _823
REMARK  396  A    between atoms: _823  and  _824
REMARK  397  A    between atoms: _823  and  _826
REMARK  398  A    between atoms: _826  and  _827
REMARK  399  A    between atoms: _827  and  _828
REMARK  400  A    between atoms: _831  and  _832
REMARK  401  A    between atoms: _832  and  _833
REMARK  402  A    between atoms: _836  and  _837
REMARK  403  A    between atoms: _837  and  _838
REMARK  404  A    between atoms: _837  and  _840
REMARK  405  A    between atoms: _840  and  _841
REMARK  406  A    between atoms: _844  and  _845
REMARK  407  A    between atoms: _845  and  _846
REMARK  408  A    between atoms: _845  and  _848
REMARK  409  A    between atoms: _848  and  _849
REMARK  410  A    between atoms: _849  and  _850
REMARK  411  A    between atoms: _853  and  _854
REMARK  412  A    between atoms: _854  and  _855
REMARK  413  A    between atoms: _858  and  _859
REMARK  414  A    between atoms: _859  and  _860
REMARK  415  A    between atoms: _862  and  _863
REMARK  416  A    between atoms: _863  and  _864
REMARK  417  A    between atoms: _867  and  _868
REMARK  418  A    between atoms: _868  and  _869
REMARK  419  A    between atoms: _868  and  _871
REMARK  420  A    between atoms: _871  and  _872
REMARK  421  A    between atoms: _875  and  _876
REMARK  422  A    between atoms: _876  and  _877
REMARK  423  A    between atoms: _876  and  _879
REMARK  424  A    between atoms: _879  and  _880
REMARK  425  A    between atoms: _883  and  _884
REMARK  426  A    between atoms: _884  and  _887
REMARK  427  A    between atoms: _906  and  _907
REMARK  428  A    between atoms: _906  and  _909
REMARK  429  A    between atoms: _909  and  _910
REMARK  430  A    between atoms: _913  and  _914
REMARK  431  A    between atoms: _914  and  _915
REMARK  432  A    between atoms: _917  and  _918
REMARK  433  A    between atoms: _918  and  _919
REMARK  434  A    between atoms: _918  and  _921
REMARK  435  A    between atoms: _921  and  _922
REMARK  436  A    between atoms: _922  and  _923
REMARK  437  A    between atoms: _926  and  _927
REMARK  438  A    between atoms: _927  and  _928
REMARK  439  A    between atoms: _927  and  _930
REMARK  440  A    between atoms: _930  and  _931
REMARK  441  A    between atoms: _937  and  _938
REMARK  442  A    between atoms: _938  and  _939
REMARK  443  A    between atoms: _941  and  _942
REMARK  444  A    between atoms: _942  and  _943
REMARK  445  A    between atoms: _942  and  _945
REMARK  446  A    between atoms: _948  and  _949
REMARK  447  A    between atoms: _949  and  _950
REMARK  448  A    between atoms: _952  and  _953
REMARK  449  A    between atoms: _953  and  _954
REMARK  450  A    between atoms: _953  and  _956
REMARK  451  A    between atoms: _956  and  _957
REMARK  452  A    between atoms: _963  and  _964
REMARK  453  A    between atoms: _964  and  _965
REMARK  454  A    between atoms: _964  and  _967
REMARK  455  A    between atoms: _967  and  _968
REMARK  456  A    between atoms: _975  and  _976
REMARK  457  A    between atoms: _976  and  _977
REMARK  458  A    between atoms: _976  and  _979
REMARK  459  A    between atoms: _981  and  _982
REMARK  460  A    between atoms: _982  and  _983
REMARK  461  A    between atoms: _986  and  _987
REMARK  462  A    between atoms: _987  and  _988
REMARK  463  A    between atoms: _987  and  _990
REMARK  464  A    between atoms: _990  and  _991
REMARK  465  A    between atoms: _998  and  _999
REMARK  466  A    between atoms: _999  and  _1000
REMARK  467  A    between atoms: _999  and  _1002
REMARK  468  A    between atoms: _1002  and  _1003
REMARK  469  A    between atoms: _1006  and  _1007
REMARK  470  A    between atoms: _1007  and  _1008
REMARK  471  A    between atoms: _1007  and  _1010
REMARK  472  A    between atoms: _1013  and  _1014
REMARK  473  A    between atoms: _1014  and  _1015
REMARK  474  A    between atoms: _1018  and  _1019
REMARK  475  A    between atoms: _1019  and  _1020
REMARK  476  A    between atoms: _1019  and  _1022
REMARK  477  A    between atoms: _1023  and  _1024
REMARK  478  A    between atoms: _1027  and  _1028
REMARK  479  A    between atoms: _1028  and  _1029
REMARK  480  A    between atoms: _1028  and  _1031
REMARK  481  A    between atoms: _1031  and  _1032
REMARK  482  A    between atoms: _1032  and  _1033
REMARK  483  A    between atoms: _1033  and  _1034
REMARK  484  A    between atoms: _1036  and  _1037
REMARK  485  A    between atoms: _1037  and  _1038
REMARK  486  A    between atoms: _1037  and  _1040
REMARK  487  A    between atoms: _1043  and  _1044
REMARK  488  A    between atoms: _1044  and  _1045
REMARK  489  A    between atoms: _1044  and  _1047
REMARK  490  A    between atoms: _1050  and  _1051
REMARK  491  A    between atoms: _1051  and  _1052
REMARK  492  A    between atoms: _1051  and  _1054
REMARK  493  A    between atoms: _1057  and  _1058
REMARK  494  A    between atoms: _1058  and  _1059
REMARK  495  A    between atoms: _1058  and  _1061
REMARK  496  A    between atoms: _1061  and  _1062
REMARK  497  A    between atoms: _1065  and  _1066
REMARK  498  A    between atoms: _1066  and  _1067
REMARK  499  A    between atoms: _1066  and  _1069
REMARK  500  A    between atoms: _1072  and  _1073
REMARK  501  A    between atoms: _1073  and  _1074
REMARK  502  A    between atoms: _1073  and  _1076
REMARK  503  A    between atoms: _1076  and  _1077
REMARK  504  A    between atoms: _1077  and  _1078
REMARK  505  A    between atoms: _1078  and  _1079
REMARK  506  A    between atoms: _1081  and  _1082
REMARK  507  A    between atoms: _1082  and  _1083
REMARK  508  A    between atoms: _1082  and  _1085
REMARK  509  A    between atoms: _1085  and  _1086
REMARK  510  A    between atoms: _1091  and  _1092
REMARK  511  A    between atoms: _1092  and  _1093
REMARK  512  A    between atoms: _1092  and  _1095
REMARK  513  A    between atoms: _1095  and  _1096
REMARK  514  A    between atoms: _1099  and  _1100
REMARK  515  A    between atoms: _1100  and  _1101
REMARK  516  A    between atoms: _1100  and  _1103
REMARK  517  A    between atoms: _1103  and  _1104
REMARK  518  A    between atoms: _1107  and  _1108
REMARK  519  A    between atoms: _1108  and  _1111
REMARK  520  A    between atoms: _1111  and  _1112
REMARK  521  A    between atoms: _1125  and  _1127
REMARK  522  A    between atoms: _1134  and  _1135
REMARK  523  A    between atoms: _1134  and  _1137
REMARK  524  A    between atoms: _1137  and  _1138
REMARK  525  A    between atoms: _1138  and  _1139
REMARK  526  A    between atoms: _1142  and  _1143
REMARK  527  A    between atoms: _1143  and  _1144
REMARK  528  A    between atoms: _1143  and  _1146
REMARK  529  A    between atoms: _1146  and  _1147
REMARK  530  A    between atoms: _1154  and  _1155
REMARK  531  A    between atoms: _1155  and  _1156
REMARK  532  A    between atoms: _1159  and  _1160
REMARK  533  A    between atoms: _1160  and  _1161
REMARK  534  A    between atoms: _1160  and  _1163
REMARK  535  A    between atoms: _1163  and  _1164
REMARK  536  A    between atoms: _1173  and  _1174
REMARK  537  A    between atoms: _1174  and  _1175
REMARK  538  A    between atoms: _1174  and  _1177
REMARK  539  A    between atoms: _1177  and  _1178
REMARK  540  A    between atoms: _1178  and  _1179
REMARK  541  A    between atoms: _1182  and  _1183
REMARK  542  A    between atoms: _1183  and  _1184
REMARK  543  A    between atoms: _1183  and  _1186
REMARK  544  A    between atoms: _1188  and  _1189
REMARK  545  A    between atoms: _1189  and  _1190
REMARK  546  A    between atoms: _1189  and  _1192
REMARK  547  A    between atoms: _1194  and  _1195
REMARK  548  A    between atoms: _1195  and  _1196
REMARK  549  A    between atoms: _1199  and  _1200
REMARK  550  A    between atoms: _1200  and  _1201
REMARK  551  A    between atoms: _1203  and  _1204
REMARK  552  A    between atoms: _1204  and  _1205
REMARK  553  A    between atoms: _1207  and  _1208
REMARK  554  A    between atoms: _1208  and  _1209
REMARK  555  A    between atoms: _1208  and  _1211
REMARK  556  A    between atoms: _1213  and  _1214
REMARK  557  A    between atoms: _1214  and  _1215
REMARK  558  A    between atoms: _1214  and  _1217
REMARK  559  A    between atoms: _1217  and  _1218
REMARK  560  A    between atoms: _1224  and  _1225
REMARK  561  A    between atoms: _1225  and  _1226
REMARK  562  A    between atoms: _1225  and  _1228
REMARK  563  A    between atoms: _1231  and  _1232
REMARK  564  A    between atoms: _1232  and  _1233
REMARK  565  A    between atoms: _1232  and  _1235
REMARK  566  A    between atoms: _1238  and  _1239
REMARK  567  A    between atoms: _1239  and  _1240
REMARK  568  A    between atoms: _1239  and  _1242
REMARK  569  A    between atoms: _1242  and  _1243
REMARK  570  A    between atoms: _1243  and  _1244
REMARK  571  A    between atoms: _1244  and  _1245
REMARK  572  A    between atoms: _1249  and  _1250
REMARK  573  A    between atoms: _1250  and  _1251
REMARK  574  A    between atoms: _1250  and  _1253
REMARK  575  A    between atoms: _1256  and  _1257
REMARK  576  A    between atoms: _1257  and  _1258
REMARK  577  A    between atoms: _1257  and  _1260
REMARK  578  A    between atoms: _1260  and  _1261
REMARK  579  A    between atoms: _1264  and  _1265
REMARK  580  A    between atoms: _1265  and  _1266
REMARK  581  A    between atoms: _1265  and  _1268
REMARK  582  A    between atoms: _1271  and  _1272
REMARK  583  A    between atoms: _1272  and  _1273
REMARK  584  A    between atoms: _1275  and  _1276
REMARK  585  A    between atoms: _1276  and  _1277
REMARK  586  A    between atoms: _1276  and  _1279
REMARK  587  A    between atoms: _1279  and  _1280
REMARK  588  A    between atoms: _1280  and  _1281
REMARK  589  A    between atoms: _1285  and  _1286
REMARK  590  A    between atoms: _1291  and  _1293
REMARK  591  A    between atoms: _1298  and  _1299
REMARK  592  A    between atoms: _1299  and  _1301
REMARK  593  A    between atoms: _1300  and  _1301
REMARK  594  A    between atoms: _1304  and  _1305
REMARK  595  A    between atoms: _1305  and  _1306
REMARK  596  A    between atoms: _1308  and  _1309
REMARK  597  A    between atoms: _1309  and  _1310
REMARK  598  A    between atoms: _1309  and  _1312
REMARK  599  A    between atoms: _1312  and  _1313
REMARK  600  A    between atoms: _1313  and  _1314
REMARK  601  A    between atoms: _1314  and  _1315
REMARK  602  A    between atoms: _1319  and  _1320
REMARK  603  A    between atoms: _1320  and  _1321
REMARK  604  A    between atoms: _1323  and  _1324
REMARK  605  A    between atoms: _1324  and  _1325
REMARK  606  A    between atoms: _1324  and  _1327
REMARK  607  A    between atoms: _1330  and  _1331
REMARK  608  A    between atoms: _1331  and  _1332
REMARK  609  A    between atoms: _1331  and  _1334
REMARK  610  A    between atoms: _1334  and  _1335
REMARK  611  A    between atoms: _1335  and  _1336
REMARK  612  A    between atoms: _1336  and  _1337
REMARK  613  A    between atoms: _1339  and  _1340
REMARK  614  A    between atoms: _1340  and  _1341
REMARK  615  A    between atoms: _1340  and  _1343
REMARK  616  A    between atoms: _1346  and  _1347
REMARK  617  A    between atoms: _1347  and  _1348
REMARK  618  A    between atoms: _1347  and  _1350
REMARK  619  A    between atoms: _1350  and  _1351
REMARK  620  A    between atoms: _1354  and  _1355
REMARK  621  A    between atoms: _1355  and  _1356
REMARK  622  A    between atoms: _1355  and  _1358
REMARK  623  A    between atoms: _1358  and  _1359
REMARK  624  A    between atoms: _1362  and  _1363
REMARK  625  A    between atoms: _1363  and  _1364
REMARK  626  A    between atoms: _1363  and  _1366
REMARK  627  A    between atoms: _1366  and  _1367
REMARK  628  A    between atoms: _1372  and  _1373
REMARK  629  A    between atoms: _1373  and  _1374
REMARK  630  A    between atoms: _1373  and  _1376
REMARK  631  A    between atoms: _1376  and  _1377
REMARK  632  A    between atoms: _1380  and  _1381
REMARK  633  A    between atoms: _1381  and  _1382
REMARK  634  A    between atoms: _1381  and  _1384
REMARK  635  A    between atoms: _1384  and  _1385
REMARK  636  A    between atoms: _1385  and  _1386
REMARK  637  A    between atoms: _1386  and  _1387
REMARK  638  A    between atoms: _1389  and  _1390
REMARK  639  A    between atoms: _1390  and  _1391
REMARK  640  A    between atoms: _1390  and  _1393
REMARK  641  A    between atoms: _1393  and  _1394
REMARK  642  A    between atoms: _1394  and  _1395
REMARK  643  A    between atoms: _1398  and  _1399
REMARK  644  A    between atoms: _1399  and  _1400
REMARK  645  A    between atoms: _1399  and  _1402
REMARK  646  A    between atoms: _1402  and  _1403
REMARK  647  A    between atoms: _1406  and  _1407
REMARK  648  A    between atoms: _1407  and  _1408
REMARK  649  A    between atoms: _1407  and  _1410
REMARK  650  A    between atoms: _1410  and  _1411
REMARK  651  A    between atoms: _1411  and  _1412
REMARK  652  A    between atoms: _1415  and  _1416
REMARK  653  A    between atoms: _1416  and  _1417
REMARK  654  A    between atoms: _1416  and  _1419
REMARK  655  A    between atoms: _1422  and  _1423
REMARK  656  A    between atoms: _1423  and  _1424
REMARK  657  A    between atoms: _1423  and  _1426
REMARK  658  A    between atoms: _1426  and  _1427
REMARK  659  A    between atoms: _1427  and  _1428
REMARK  660  A    between atoms: _1431  and  _1432
REMARK  661  A    between atoms: _1432  and  _1433
REMARK  662  A    between atoms: _1432  and  _1435
REMARK  663  A    between atoms: _1435  and  _1436
REMARK  664  A    between atoms: _1443  and  _1444
REMARK  665  A    between atoms: _1444  and  _1445
REMARK  666  A    between atoms: _1444  and  _1447
REMARK  667  A    between atoms: _1447  and  _1448
REMARK  668  A    between atoms: _1451  and  _1452
REMARK  669  A    between atoms: _1452  and  _1453
REMARK  670  A    between atoms: _1452  and  _1455
REMARK  671  A    between atoms: _1455  and  _1456
REMARK  672  A    between atoms: _1456  and  _1457
REMARK  673  A    between atoms: _1460  and  _1461
REMARK  674  A    between atoms: _1461  and  _1462
REMARK  675  A    between atoms: _1461  and  _1464
REMARK  676  A    between atoms: _1464  and  _1465
REMARK  677  A    between atoms: _1465  and  _1466
REMARK  678  A    between atoms: _1469  and  _1470
REMARK  679  A    between atoms: _1470  and  _1471
REMARK  680  A    between atoms: _1470  and  _1473
REMARK  681  A    between atoms: _1473  and  _1474
REMARK  682  A    between atoms: _1474  and  _1475
REMARK  683  A    between atoms: _1475  and  _1476
REMARK  684  A    between atoms: _1480  and  _1481
REMARK  685  A    between atoms: _1481  and  _1482
REMARK  686  A    between atoms: _1481  and  _1484
REMARK  687  A    between atoms: _1484  and  _1485
REMARK  688  A    between atoms: _1485  and  _1486
REMARK  689  A    between atoms: _1486  and  _1487
REMARK  690  A    between atoms: _1491  and  _1492
REMARK  691  A    between atoms: _1492  and  _1493
REMARK  692  A    between atoms: _1492  and  _1495
REMARK  693  A    between atoms: _1495  and  _1496
REMARK  694  A    between atoms: _1499  and  _1500
REMARK  695  A    between atoms: _1500  and  _1501
REMARK  696  A    between atoms: _1500  and  _1503
REMARK  697  A    between atoms: _1503  and  _1504
REMARK  698  A    between atoms: _1504  and  _1505
REMARK  699  A    between atoms: _1505  and  _1506
REMARK  700  A    between atoms: _1508  and  _1509
REMARK  701  A    between atoms: _1509  and  _1510
REMARK  702  A    between atoms: _1509  and  _1512
REMARK  703  A    between atoms: _1512  and  _1513
REMARK  704  A    between atoms: _1513  and  _1514
REMARK  705  A    between atoms: _1517  and  _1518
REMARK  706  A    between atoms: _1518  and  _1519
REMARK  707  A    between atoms: _1518  and  _1521
REMARK  708  A    between atoms: _1521  and  _1522
REMARK  709  A    between atoms: _1525  and  _1526
REMARK  710  A    between atoms: _1526  and  _1527
REMARK  711  A    between atoms: _1526  and  _1529
REMARK  712  A    between atoms: _1532  and  _1533
REMARK  713  A    between atoms: _1533  and  _1534
REMARK  714  A    between atoms: _1533  and  _1536
REMARK  715  A    between atoms: _1536  and  _1537
REMARK  716  A    between atoms: _1537  and  _1538
REMARK  717  A    between atoms: _1538  and  _1539
REMARK  718  A    between atoms: _1541  and  _1542
REMARK  719  A    between atoms: _1542  and  _1543
REMARK  720  A    between atoms: _1542  and  _1545
REMARK  721  A    between atoms: _1545  and  _1546
REMARK  722  A    between atoms: _1546  and  _1547
REMARK  723  A    between atoms: _1547  and  _1548
REMARK  724  A    between atoms: _1550  and  _1551
REMARK  725  A    between atoms: _1551  and  _1552
REMARK  726  A    between atoms: _1551  and  _1554
REMARK  727  A    between atoms: _1554  and  _1555
REMARK  728  A    between atoms: _1560  and  _1561
REMARK  729  A    between atoms: _1561  and  _1562
REMARK  730  A    between atoms: _1561  and  _1564
REMARK  731  A    between atoms: _1566  and  _1567
REMARK  732  A    between atoms: _1567  and  _1568
REMARK  733  A    between atoms: _1567  and  _1570
REMARK  734  A    between atoms: _1570  and  _1571
REMARK  735  A    between atoms: _1571  and  _1572
REMARK  736  A    between atoms: _1575  and  _1576
REMARK  737  A    between atoms: _1576  and  _1577
REMARK  738  A    between atoms: _1576  and  _1579
REMARK  739  A    between atoms: _1579  and  _1580
REMARK  740  A    between atoms: _1586  and  _1587
REMARK  741  A    between atoms: _1587  and  _1588
REMARK  742  A    between atoms: _1587  and  _1590
REMARK  743  A    between atoms: _1590  and  _1591
REMARK  744  A    between atoms: _1594  and  _1595
REMARK  745  A    between atoms: _1595  and  _1596
REMARK  746  A    between atoms: _1598  and  _1599
REMARK  747  A    between atoms: _1599  and  _1600
REMARK  748  A    between atoms: _1599  and  _1602
REMARK  749  A    between atoms: _1602  and  _1603
REMARK  750  A    between atoms: _1611  and  _1612
REMARK  751  A    between atoms: _1617  and  _1618
REMARK  752  A    between atoms: _1618  and  _1619
REMARK  753  A    between atoms: _1618  and  _1621
REMARK  754  A    between atoms: _1621  and  _1622
REMARK  755  A    between atoms: _1625  and  _1626
REMARK  756  A    between atoms: _1626  and  _1627
REMARK  757  A    between atoms: _1626  and  _1629
REMARK  758  A    between atoms: _1632  and  _1633
REMARK  759  A    between atoms: _1633  and  _1634
REMARK  760  A    between atoms: _1633  and  _1636
REMARK  761  A    between atoms: _1636  and  _1637
REMARK  762  A    between atoms: _1640  and  _1641
REMARK  763  A    between atoms: _1641  and  _1642
REMARK  764  A    between atoms: _1641  and  _1644
REMARK  765  A    between atoms: _1644  and  _1645
REMARK  766  A    between atoms: _1651  and  _1652
REMARK  767  A    between atoms: _1652  and  _1653
REMARK  768  A    between atoms: _1652  and  _1655
REMARK  769  A    between atoms: _1658  and  _1659
REMARK  770  A    between atoms: _1659  and  _1660
REMARK  771  A    between atoms: _1659  and  _1662
REMARK  772  A    between atoms: _1662  and  _1663
REMARK  773  A    between atoms: _1663  and  _1664
REMARK  774  A    between atoms: _1667  and  _1668
REMARK  775  A    between atoms: _1668  and  _1669
REMARK  776  A    between atoms: _1668  and  _1671
REMARK  777  A    between atoms: _1671  and  _1672
REMARK  778  A    between atoms: _1672  and  _1673
REMARK  779  A    between atoms: _1673  and  _1674
REMARK                            x       y       z     vdW  Elec       q    Type
REMARK                         _______ _______ _______ _____ _____    ______ ____
ROOT
ATOM      1  C   UNL     1       1.642  26.018   8.799  0.00  0.00    +0.000 C 
ENDROOT
TORSDOF 0
REMARK  Name = /Users/mlugowska/PhD/ML_residence_time_prediction/protein_files/5NYH_protein.pdb
REMARK  779 active torsions:
REMARK  status: ('A' for Active; 'I' for Inactive)
REMARK    1  A    between atoms: _2  and  _3
REMARK    2  A    between atoms: _2  and  _5
REMARK    3  A    between atoms: _5  and  _6
REMARK    4  A    between atoms: _6  and  _7
REMARK    5  A    between atoms: _10  and  _11
REMARK    6  A    between atoms: _11  and  _12
REMARK    7  A    between atoms: _11  and  _14
REMARK    8  A    between atoms: _17  and  _18
REMARK    9  A    between atoms: _18  and  _19
REMARK   10  A    between atoms: _18  and  _21
REMARK   11  A    between atoms: _21  and  _22
REMARK   12  A    between atoms: _22  and  _23
REMARK   13  A    between atoms: _26  and  _27
REMARK   14  A    between atoms: _27  and  _28
REMARK   15  A    between atoms: _27  and  _30
REMARK   16  A    between atoms: _33  and  _34
REMARK   17  A    between atoms: _34  and  _35
REMARK   18  A    between atoms: _34  and  _37
REMARK   19  A    between atoms: _37  and  _38
REMARK   20  A    between atoms: _44  and  _45
REMARK   21  A    between atoms: _45  and  _46
REMARK   22  A    between atoms: _49  and  _50
REMARK   23  A    between atoms: _50  and  _51
REMARK   24  A    between atoms: _50  and  _53
REMARK   25  A    between atoms: _53  and  _54
REMARK   26  A    between atoms: _60  and  _61
REMARK   27  A    between atoms: _61  and  _62
REMARK   28  A    between atoms: _61  and  _64
REMARK   29  A    between atoms: _64  and  _65
REMARK   30  A    between atoms: _65  and  _66
REMARK   31  A    between atoms: _69  and  _70
REMARK   32  A    between atoms: _70  and  _71
REMARK   33  A    between atoms: _74  and  _75
REMARK   34  A    between atoms: _75  and  _76
REMARK   35  A    between atoms: _75  and  _78
REMARK   36  A    between atoms: _78  and  _79
REMARK   37  A    between atoms: _79  and  _80
REMARK   38  A    between atoms: _83  and  _84
REMARK   39  A    between atoms: _84  and  _85
REMARK   40  A    between atoms: _84  and  _87
REMARK   41  A    between atoms: _87  and  _88
REMARK   42  A    between atoms: _91  and  _92
REMARK   43  A    between atoms: _92  and  _93
REMARK   44  A    between atoms: _96  and  _97
REMARK   45  A    between atoms: _97  and  _98
REMARK   46  A    between atoms: _97  and  _100
REMARK   47  A    between atoms: _100  and  _101
REMARK   48  A    between atoms: _101  and  _102
REMARK   49  A    between atoms: _105  and  _106
REMARK   50  A    between atoms: _106  and  _107
REMARK   51  A    between atoms: _106  and  _109
REMARK   52  A    between atoms: _109  and  _110
REMARK   53  A    between atoms: _113  and  _114
REMARK   54  A    between atoms: _114  and  _115
REMARK   55  A    between atoms: _114  and  _117
REMARK   56  A    between atoms: _117  and  _118
REMARK   57  A    between atoms: _118  and  _119
REMARK   58  A    between atoms: _121  and  _122
REMARK   59  A    between atoms: _122  and  _123
REMARK   60  A    between atoms: _122  and  _125
REMARK   61  A    between atoms: _127  and  _128
REMARK   62  A    between atoms: _128  and  _129
REMARK   63  A    between atoms: _128  and  _131
REMARK   64  A    between atoms: _131  and  _132
REMARK   65  A    between atoms: _135  and  _136
REMARK   66  A    between atoms: _136  and  _137
REMARK   67  A    between atoms: _136  and  _139
REMARK   68  A    between atoms: _139  and  _140
REMARK   69  A    between atoms: _143  and  _144
REMARK   70  A    between atoms: _144  and  _145
REMARK   71  A    between atoms: _144  and  _147
REMARK   72  A    between atoms: _147  and  _148
REMARK   73  A    between atoms: _151  and  _152
REMARK   74  A    between atoms: _152  and  _153
REMARK   75  A    between atoms: _152  and  _155
REMARK   76  A    between atoms: _155  and  _156
REMARK   77  A    between atoms: _159  and  _160
REMARK   78  A    between atoms: _160  and  _161
REMARK   79  A    between atoms: _160  and  _163
REMARK   80  A    between atoms: _166  and  _167
REMARK   81  A    between atoms: _167  and  _168
REMARK   82  A    between atoms: _167  and  _170
REMARK   83  A    between atoms: _170  and  _171
REMARK   84  A    between atoms: _177  and  _178
REMARK   85  A    between atoms: _178  and  _179
REMARK   86  A    between atoms: _178  and  _181
REMARK   87  A    between atoms: _181  and  _182
REMARK   88  A    between atoms: _189  and  _190
REMARK   89  A    between atoms: _190  and  _191
REMARK   90  A    between atoms: _190  and  _193
REMARK   91  A    between atoms: _195  and  _196
REMARK   92  A    between atoms: _196  and  _197
REMARK   93  A    between atoms: _196  and  _199
REMARK   94  A    between atoms: _199  and  _200
REMARK   95  A    between atoms: _203  and  _204
REMARK   96  A    between atoms: _204  and  _205
REMARK   97  A    between atoms: _204  and  _207
REMARK   98  A    between atoms: _207  and  _208
REMARK   99  A    between atoms: _208  and  _209
REMARK  100  A    between atoms: _209  and  _210
REMARK  101  A    between atoms: _212  and  _213
REMARK  102  A    between atoms: _213  and  _214
REMARK  103  A    between atoms: _213  and  _216
REMARK  104  A    between atoms: _216  and  _217
REMARK  105  A    between atoms: _217  and  _218
REMARK  106  A    between atoms: _221  and  _222
REMARK  107  A    between atoms: _222  and  _223
REMARK  108  A    between atoms: _222  and  _225
REMARK  109  A    between atoms: _225  and  _226
REMARK  110  A    between atoms: _229  and  _230
REMARK  111  A    between atoms: _230  and  _231
REMARK  112  A    between atoms: _230  and  _233
REMARK  113  A    between atoms: _233  and  _234
REMARK  114  A    between atoms: _240  and  _241
REMARK  115  A    between atoms: _241  and  _242
REMARK  116  A    between atoms: _241  and  _244
REMARK  117  A    between atoms: _244  and  _245
REMARK  118  A    between atoms: _248  and  _249
REMARK  119  A    between atoms: _249  and  _250
REMARK  120  A    between atoms: _249  and  _252
REMARK  121  A    between atoms: _252  and  _253
REMARK  122  A    between atoms: _253  and  _254
REMARK  123  A    between atoms: _254  and  _255
REMARK  124  A    between atoms: _259  and  _260
REMARK  125  A    between atoms: _260  and  _261
REMARK  126  A    between atoms: _260  and  _263
REMARK  127  A    between atoms: _263  and  _264
REMARK  128  A    between atoms: _264  and  _265
REMARK  129  A    between atoms: _268  and  _269
REMARK  130  A    between atoms: _269  and  _270
REMARK  131  A    between atoms: _269  and  _272
REMARK  132  A    between atoms: _272  and  _273
REMARK  133  A    between atoms: _276  and  _277
REMARK  134  A    between atoms: _277  and  _278
REMARK  135  A    between atoms: _277  and  _280
REMARK  136  A    between atoms: _280  and  _281
REMARK  137  A    between atoms: _284  and  _285
REMARK  138  A    between atoms: _285  and  _286
REMARK  139  A    between atoms: _285  and  _288
REMARK  140  A    between atoms: _290  and  _291
REMARK  141  A    between atoms: _291  and  _292
REMARK  142  A    between atoms: _291  and  _294
REMARK  143  A    between atoms: _294  and  _295
REMARK  144  A    between atoms: _298  and  _299
REMARK  145  A    between atoms: _299  and  _300
REMARK  146  A    between atoms: _299  and  _302
REMARK  147  A    between atoms: _304  and  _305
REMARK  148  A    between atoms: _305  and  _306
REMARK  149  A    between atoms: _305  and  _308
REMARK  150  A    between atoms: _310  and  _311
REMARK  151  A    between atoms: _311  and  _312
REMARK  152  A    between atoms: _311  and  _314
REMARK  153  A    between atoms: _314  and  _315
REMARK  154  A    between atoms: _318  and  _319
REMARK  155  A    between atoms: _319  and  _320
REMARK  156  A    between atoms: _323  and  _324
REMARK  157  A    between atoms: _324  and  _325
REMARK  158  A    between atoms: _324  and  _327
REMARK  159  A    between atoms: _327  and  _328
REMARK  160  A    between atoms: _331  and  _332
REMARK  161  A    between atoms: _332  and  _333
REMARK  162  A    between atoms: _332  and  _335
REMARK  163  A    between atoms: _335  and  _336
REMARK  164  A    between atoms: _339  and  _340
REMARK  165  A    between atoms: _340  and  _341
REMARK  166  A    between atoms: _340  and  _343
REMARK  167  A    between atoms: _343  and  _344
REMARK  168  A    between atoms: _344  and  _345
REMARK  169  A    between atoms: _345  and  _346
REMARK  170  A    between atoms: _348  and  _349
REMARK  171  A    between atoms: _349  and  _350
REMARK  172  A    between atoms: _349  and  _352
REMARK  173  A    between atoms: _352  and  _353
REMARK  174  A    between atoms: _356  and  _357
REMARK  175  A    between atoms: _357  and  _358
REMARK  176  A    between atoms: _357  and  _360
REMARK  177  A    between atoms: _360  and  _361
REMARK  178  A    between atoms: _361  and  _362
REMARK  179  A    between atoms: _362  and  _363
REMARK  180  A    between atoms: _367  and  _368
REMARK  181  A    between atoms: _368  and  _369
REMARK  182  A    between atoms: _368  and  _371
REMARK  183  A    between atoms: _371  and  _372
REMARK  184  A    between atoms: _379  and  _380
REMARK  185  A    between atoms: _380  and  _381
REMARK  186  A    between atoms: _380  and  _383
REMARK  187  A    between atoms: _383  and  _384
REMARK  188  A    between atoms: _384  and  _385
REMARK  189  A    between atoms: _388  and  _389
REMARK  190  A    between atoms: _389  and  _390
REMARK  191  A    between atoms: _389  and  _392
REMARK  192  A    between atoms: _394  and  _395
REMARK  193  A    between atoms: _395  and  _396
REMARK  194  A    between atoms: _395  and  _398
REMARK  195  A    between atoms: _398  and  _399
REMARK  196  A    between atoms: _402  and  _403
REMARK  197  A    between atoms: _403  and  _404
REMARK  198  A    between atoms: _403  and  _406
REMARK  199  A    between atoms: _409  and  _410
REMARK  200  A    between atoms: _410  and  _411
REMARK  201  A    between atoms: _410  and  _413
REMARK  202  A    between atoms: _413  and  _414
REMARK  203  A    between atoms: _418  and  _419
REMARK  204  A    between atoms: _424  and  _425
REMARK  205  A    between atoms: _425  and  _426
REMARK  206  A    between atoms: _425  and  _428
REMARK  207  A    between atoms: _430  and  _431
REMARK  208  A    between atoms: _431  and  _432
REMARK  209  A    between atoms: _431  and  _434
REMARK  210  A    between atoms: _434  and  _435
REMARK  211  A    between atoms: _435  and  _436
REMARK  212  A    between atoms: _436  and  _437
REMARK  213  A    between atoms: _439  and  _440
REMARK  214  A    between atoms: _440  and  _441
REMARK  215  A    between atoms: _440  and  _443
REMARK  216  A    between atoms: _443  and  _444
REMARK  217  A    between atoms: _447  and  _448
REMARK  218  A    between atoms: _448  and  _449
REMARK  219  A    between atoms: _448  and  _451
REMARK  220  A    between atoms: _451  and  _452
REMARK  221  A    between atoms: _455  and  _456
REMARK  222  A    between atoms: _456  and  _457
REMARK  223  A    between atoms: _456  and  _459
REMARK  224  A    between atoms: _461  and  _462
REMARK  225  A    between atoms: _462  and  _463
REMARK  226  A    between atoms: _465  and  _466
REMARK  227  A    between atoms: _466  and  _467
REMARK  228  A    between atoms: _466  and  _469
REMARK  229  A    between atoms: _469  and  _470
REMARK  230  A    between atoms: _470  and  _471
REMARK  231  A    between atoms: _471  and  _472
REMARK  232  A    between atoms: _474  and  _475
REMARK  233  A    between atoms: _475  and  _476
REMARK  234  A    between atoms: _475  and  _478
REMARK  235  A    between atoms: _478  and  _479
REMARK  236  A    between atoms: _479  and  _480
REMARK  237  A    between atoms: _483  and  _484
REMARK  238  A    between atoms: _484  and  _485
REMARK  239  A    between atoms: _484  and  _487
REMARK  240  A    between atoms: _487  and  _488
REMARK  241  A    between atoms: _491  and  _492
REMARK  242  A    between atoms: _492  and  _493
REMARK  243  A    between atoms: _492  and  _495
REMARK  244  A    between atoms: _495  and  _496
REMARK  245  A    between atoms: _501  and  _502
REMARK  246  A    between atoms: _502  and  _503
REMARK  247  A    between atoms: _502  and  _505
REMARK  248  A    between atoms: _505  and  _506
REMARK  249  A    between atoms: _509  and  _510
REMARK  250  A    between atoms: _510  and  _511
REMARK  251  A    between atoms: _510  and  _513
REMARK  252  A    between atoms: _513  and  _514
REMARK  253  A    between atoms: _517  and  _518
REMARK  254  A    between atoms: _518  and  _519
REMARK  255  A    between atoms: _518  and  _521
REMARK  256  A    between atoms: _521  and  _522
REMARK  257  A    between atoms: _525  and  _526
REMARK  258  A    between atoms: _526  and  _527
REMARK  259  A    between atoms: _526  and  _529
REMARK  260  A    between atoms: _529  and  _530
REMARK  261  A    between atoms: _534  and  _535
REMARK  262  A    between atoms: _540  and  _541
REMARK  263  A    between atoms: _541  and  _542
REMARK  264  A    between atoms: _541  and  _544
REMARK  265  A    between atoms: _544  and  _545
REMARK  266  A    between atoms: _548  and  _549
REMARK  267  A    between atoms: _549  and  _552
REMARK  268  A    between atoms: _552  and  _553
REMARK  269  A    between atoms: _553  and  _554
REMARK  270  A    between atoms: _554  and  _555
REMARK  271  A    between atoms: _568  and  _569
REMARK  272  A    between atoms: _576  and  _577
REMARK  273  A    between atoms: _576  and  _579
REMARK  274  A    between atoms: _579  and  _580
REMARK  275  A    between atoms: _583  and  _584
REMARK  276  A    between atoms: _584  and  _585
REMARK  277  A    between atoms: _584  and  _587
REMARK  278  A    between atoms: _587  and  _588
REMARK  279  A    between atoms: _588  and  _589
REMARK  280  A    between atoms: _589  and  _590
REMARK  281  A    between atoms: _594  and  _595
REMARK  282  A    between atoms: _595  and  _596
REMARK  283  A    between atoms: _595  and  _598
REMARK  284  A    between atoms: _601  and  _602
REMARK  285  A    between atoms: _602  and  _603
REMARK  286  A    between atoms: _602  and  _605
REMARK  287  A    between atoms: _605  and  _606
REMARK  288  A    between atoms: _609  and  _610
REMARK  289  A    between atoms: _610  and  _611
REMARK  290  A    between atoms: _610  and  _613
REMARK  291  A    between atoms: _616  and  _617
REMARK  292  A    between atoms: _617  and  _618
REMARK  293  A    between atoms: _617  and  _620
REMARK  294  A    between atoms: _620  and  _621
REMARK  295  A    between atoms: _624  and  _625
REMARK  296  A    between atoms: _625  and  _626
REMARK  297  A    between atoms: _625  and  _628
REMARK  298  A    between atoms: _631  and  _632
REMARK  299  A    between atoms: _632  and  _633
REMARK  300  A    between atoms: _632  and  _635
REMARK  301  A    between atoms: _635  and  _636
REMARK  302  A    between atoms: _639  and  _640
REMARK  303  A    between atoms: _640  and  _641
REMARK  304  A    between atoms: _640  and  _643
REMARK  305  A    between atoms: _646  and  _647
REMARK  306  A    between atoms: _647  and  _648
REMARK  307  A    between atoms: _650  and  _651
REMARK  308  A    between atoms: _651  and  _652
REMARK  309  A    between atoms: _651  and  _654
REMARK  310  A    between atoms: _654  and  _655
REMARK  311  A    between atoms: _658  and  _659
REMARK  312  A    between atoms: _659  and  _660
REMARK  313  A    between atoms: _662  and  _663
REMARK  314  A    between atoms: _663  and  _664
REMARK  315  A    between atoms: _663  and  _666
REMARK  316  A    between atoms: _666  and  _667
REMARK  317  A    between atoms: _667  and  _668
REMARK  318  A    between atoms: _670  and  _671
REMARK  319  A    between atoms: _671  and  _672
REMARK  320  A    between atoms: _671  and  _674
REMARK  321  A    between atoms: _677  and  _678
REMARK  322  A    between atoms: _678  and  _679
REMARK  323  A    between atoms: _678  and  _681
REMARK  324  A    between atoms: _681  and  _682
REMARK  325  A    between atoms: _682  and  _683
REMARK  326  A    between atoms: _683  and  _684
REMARK  327  A    between atoms: _686  and  _687
REMARK  328  A    between atoms: _687  and  _688
REMARK  329  A    between atoms: _691  and  _692
REMARK  330  A    between atoms: _692  and  _693
REMARK  331  A    between atoms: _692  and  _695
REMARK  332  A    between atoms: _695  and  _696
REMARK  333  A    between atoms: _699  and  _700
REMARK  334  A    between atoms: _700  and  _701
REMARK  335  A    between atoms: _700  and  _703
REMARK  336  A    between atoms: _703  and  _704
REMARK  337  A    between atoms: _707  and  _708
REMARK  338  A    between atoms: _708  and  _709
REMARK  339  A    between atoms: _708  and  _711
REMARK  340  A    between atoms: _711  and  _712
REMARK  341  A    between atoms: _715  and  _716
REMARK  342  A    between atoms: _716  and  _717
REMARK  343  A    between atoms: _716  and  _719
REMARK  344  A    between atoms: _719  and  _720
REMARK  345  A    between atoms: _723  and  _724
REMARK  346  A    between atoms: _724  and  _725
REMARK  347  A    between atoms: _724  and  _727
REMARK  348  A    between atoms: _727  and  _728
REMARK  349  A    between atoms: _731  and  _732
REMARK  350  A    between atoms: _732  and  _733
REMARK  351  A    between atoms: _732  and  _735
REMARK  352  A    between atoms: _735  and  _736
REMARK  353  A    between atoms: _739  and  _740
REMARK  354  A    between atoms: _740  and  _741
REMARK  355  A    between atoms: _743  and  _744
REMARK  356  A    between atoms: _744  and  _745
REMARK  357  A    between atoms: _744  and  _747
REMARK  358  A    between atoms: _750  and  _751
REMARK  359  A    between atoms: _751  and  _752
REMARK  360  A    between atoms: _751  and  _754
REMARK  361  A    between atoms: _754  and  _755
REMARK  362  A    between atoms: _758  and  _759
REMARK  363  A    between atoms: _759  and  _760
REMARK  364  A    between atoms: _763  and  _764
REMARK  365  A    between atoms: _764  and  _765
REMARK  366  A    between atoms: _764  and  _767
REMARK  367  A    between atoms: _767  and  _768
REMARK  368  A    between atoms: _768  and  _769
REMARK  369  A    between atoms: _769  and  _770
REMARK  370  A    between atoms: _772  and  _773
REMARK  371  A    between atoms: _773  and  _774
REMARK  372  A    between atoms: _773  and  _776
REMARK  373  A    between atoms: _778  and  _779
REMARK  374  A    between atoms: _779  and  _780
REMARK  375  A    between atoms: _782  and  _783
REMARK  376  A    between atoms: _783  and  _784
REMARK  377  A    between atoms: _783  and  _786
REMARK  378  A    between atoms: _789  and  _790
REMARK  379  A    between atoms: _790  and  _791
REMARK  380  A    between atoms: _790  and  _793
REMARK  381  A    between atoms: _793  and  _794
REMARK  382  A    between atoms: _794  and  _795
REMARK  383  A    between atoms: _795  and  _796
REMARK  384  A    between atoms: _798  and  _799
REMARK  385  A    between atoms: _799  and  _800
REMARK  386  A    between atoms: _803  and  _804
REMARK  387  A    between atoms: _804  and  _805
REMARK  388  A    between atoms: _804  and  _807
REMARK  389  A    between atoms: _807  and  _808
REMARK  390  A    between atoms: _814  and  _815
REMARK  391  A    between atoms: _815  and  _816
REMARK  392  A    between atoms: _815  and  _818
REMARK  393  A    between atoms: _818  and  _819
REMARK  394  A    between atoms: _819  and  _820
REMARK  395  A    between atoms: _822  and  _823
REMARK  396  A    between atoms: _823  and  _824
REMARK  397  A    between atoms: _823  and  _826
REMARK  398  A    between atoms: _826  and  _827
REMARK  399  A    between atoms: _827  and  _828
REMARK  400  A    between atoms: _831  and  _832
REMARK  401  A    between atoms: _832  and  _833
REMARK  402  A    between atoms: _836  and  _837
REMARK  403  A    between atoms: _837  and  _838
REMARK  404  A    between atoms: _837  and  _840
REMARK  405  A    between atoms: _840  and  _841
REMARK  406  A    between atoms: _844  and  _845
REMARK  407  A    between atoms: _845  and  _846
REMARK  408  A    between atoms: _845  and  _848
REMARK  409  A    between atoms: _848  and  _849
REMARK  410  A    between atoms: _849  and  _850
REMARK  411  A    between atoms: _853  and  _854
REMARK  412  A    between atoms: _854  and  _855
REMARK  413  A    between atoms: _858  and  _859
REMARK  414  A    between atoms: _859  and  _860
REMARK  415  A    between atoms: _862  and  _863
REMARK  416  A    between atoms: _863  and  _864
REMARK  417  A    between atoms: _867  and  _868
REMARK  418  A    between atoms: _868  and  _869
REMARK  419  A    between atoms: _868  and  _871
REMARK  420  A    between atoms: _871  and  _872
REMARK  421  A    between atoms: _875  and  _876
REMARK  422  A    between atoms: _876  and  _877
REMARK  423  A    between atoms: _876  and  _879
REMARK  424  A    between atoms: _879  and  _880
REMARK  425  A    between atoms: _883  and  _884
REMARK  426  A    between atoms: _884  and  _887
REMARK  427  A    between atoms: _906  and  _907
REMARK  428  A    between atoms: _906  and  _909
REMARK  429  A    between atoms: _909  and  _910
REMARK  430  A    between atoms: _913  and  _914
REMARK  431  A    between atoms: _914  and  _915
REMARK  432  A    between atoms: _917  and  _918
REMARK  433  A    between atoms: _918  and  _919
REMARK  434  A    between atoms: _918  and  _921
REMARK  435  A    between atoms: _921  and  _922
REMARK  436  A    between atoms: _922  and  _923
REMARK  437  A    between atoms: _926  and  _927
REMARK  438  A    between atoms: _927  and  _928
REMARK  439  A    between atoms: _927  and  _930
REMARK  440  A    between atoms: _930  and  _931
REMARK  441  A    between atoms: _937  and  _938
REMARK  442  A    between atoms: _938  and  _939
REMARK  443  A    between atoms: _941  and  _942
REMARK  444  A    between atoms: _942  and  _943
REMARK  445  A    between atoms: _942  and  _945
REMARK  446  A    between atoms: _948  and  _949
REMARK  447  A    between atoms: _949  and  _950
REMARK  448  A    between atoms: _952  and  _953
REMARK  449  A    between atoms: _953  and  _954
REMARK  450  A    between atoms: _953  and  _956
REMARK  451  A    between atoms: _956  and  _957
REMARK  452  A    between atoms: _963  and  _964
REMARK  453  A    between atoms: _964  and  _965
REMARK  454  A    between atoms: _964  and  _967
REMARK  455  A    between atoms: _967  and  _968
REMARK  456  A    between atoms: _975  and  _976
REMARK  457  A    between atoms: _976  and  _977
REMARK  458  A    between atoms: _976  and  _979
REMARK  459  A    between atoms: _981  and  _982
REMARK  460  A    between atoms: _982  and  _983
REMARK  461  A    between atoms: _986  and  _987
REMARK  462  A    between atoms: _987  and  _988
REMARK  463  A    between atoms: _987  and  _990
REMARK  464  A    between atoms: _990  and  _991
REMARK  465  A    between atoms: _998  and  _999
REMARK  466  A    between atoms: _999  and  _1000
REMARK  467  A    between atoms: _999  and  _1002
REMARK  468  A    between atoms: _1002  and  _1003
REMARK  469  A    between atoms: _1006  and  _1007
REMARK  470  A    between atoms: _1007  and  _1008
REMARK  471  A    between atoms: _1007  and  _1010
REMARK  472  A    between atoms: _1013  and  _1014
REMARK  473  A    between atoms: _1014  and  _1015
REMARK  474  A    between atoms: _1018  and  _1019
REMARK  475  A    between atoms: _1019  and  _1020
REMARK  476  A    between atoms: _1019  and  _1022
REMARK  477  A    between atoms: _1023  and  _1024
REMARK  478  A    between atoms: _1027  and  _1028
REMARK  479  A    between atoms: _1028  and  _1029
REMARK  480  A    between atoms: _1028  and  _1031
REMARK  481  A    between atoms: _1031  and  _1032
REMARK  482  A    between atoms: _1032  and  _1033
REMARK  483  A    between atoms: _1033  and  _1034
REMARK  484  A    between atoms: _1036  and  _1037
REMARK  485  A    between atoms: _1037  and  _1038
REMARK  486  A    between atoms: _1037  and  _1040
REMARK  487  A    between atoms: _1043  and  _1044
REMARK  488  A    between atoms: _1044  and  _1045
REMARK  489  A    between atoms: _1044  and  _1047
REMARK  490  A    between atoms: _1050  and  _1051
REMARK  491  A    between atoms: _1051  and  _1052
REMARK  492  A    between atoms: _1051  and  _1054
REMARK  493  A    between atoms: _1057  and  _1058
REMARK  494  A    between atoms: _1058  and  _1059
REMARK  495  A    between atoms: _1058  and  _1061
REMARK  496  A    between atoms: _1061  and  _1062
REMARK  497  A    between atoms: _1065  and  _1066
REMARK  498  A    between atoms: _1066  and  _1067
REMARK  499  A    between atoms: _1066  and  _1069
REMARK  500  A    between atoms: _1072  and  _1073
REMARK  501  A    between atoms: _1073  and  _1074
REMARK  502  A    between atoms: _1073  and  _1076
REMARK  503  A    between atoms: _1076  and  _1077
REMARK  504  A    between atoms: _1077  and  _1078
REMARK  505  A    between atoms: _1078  and  _1079
REMARK  506  A    between atoms: _1081  and  _1082
REMARK  507  A    between atoms: _1082  and  _1083
REMARK  508  A    between atoms: _1082  and  _1085
REMARK  509  A    between atoms: _1085  and  _1086
REMARK  510  A    between atoms: _1091  and  _1092
REMARK  511  A    between atoms: _1092  and  _1093
REMARK  512  A    between atoms: _1092  and  _1095
REMARK  513  A    between atoms: _1095  and  _1096
REMARK  514  A    between atoms: _1099  and  _1100
REMARK  515  A    between atoms: _1100  and  _1101
REMARK  516  A    between atoms: _1100  and  _1103
REMARK  517  A    between atoms: _1103  and  _1104
REMARK  518  A    between atoms: _1107  and  _1108
REMARK  519  A    between atoms: _1108  and  _1111
REMARK  520  A    between atoms: _1111  and  _1112
REMARK  521  A    between atoms: _1125  and  _1127
REMARK  522  A    between atoms: _1134  and  _1135
REMARK  523  A    between atoms: _1134  and  _1137
REMARK  524  A    between atoms: _1137  and  _1138
REMARK  525  A    between atoms: _1138  and  _1139
REMARK  526  A    between atoms: _1142  and  _1143
REMARK  527  A    between atoms: _1143  and  _1144
REMARK  528  A    between atoms: _1143  and  _1146
REMARK  529  A    between atoms: _1146  and  _1147
REMARK  530  A    between atoms: _1154  and  _1155
REMARK  531  A    between atoms: _1155  and  _1156
REMARK  532  A    between atoms: _1159  and  _1160
REMARK  533  A    between atoms: _1160  and  _1161
REMARK  534  A    between atoms: _1160  and  _1163
REMARK  535  A    between atoms: _1163  and  _1164
REMARK  536  A    between atoms: _1173  and  _1174
REMARK  537  A    between atoms: _1174  and  _1175
REMARK  538  A    between atoms: _1174  and  _1177
REMARK  539  A    between atoms: _1177  and  _1178
REMARK  540  A    between atoms: _1178  and  _1179
REMARK  541  A    between atoms: _1182  and  _1183
REMARK  542  A    between atoms: _1183  and  _1184
REMARK  543  A    between atoms: _1183  and  _1186
REMARK  544  A    between atoms: _1188  and  _1189
REMARK  545  A    between atoms: _1189  and  _1190
REMARK  546  A    between atoms: _1189  and  _1192
REMARK  547  A    between atoms: _1194  and  _1195
REMARK  548  A    between atoms: _1195  and  _1196
REMARK  549  A    between atoms: _1199  and  _1200
REMARK  550  A    between atoms: _1200  and  _1201
REMARK  551  A    between atoms: _1203  and  _1204
REMARK  552  A    between atoms: _1204  and  _1205
REMARK  553  A    between atoms: _1207  and  _1208
REMARK  554  A    between atoms: _1208  and  _1209
REMARK  555  A    between atoms: _1208  and  _1211
REMARK  556  A    between atoms: _1213  and  _1214
REMARK  557  A    between atoms: _1214  and  _1215
REMARK  558  A    between atoms: _1214  and  _1217
REMARK  559  A    between atoms: _1217  and  _1218
REMARK  560  A    between atoms: _1224  and  _1225
REMARK  561  A    between atoms: _1225  and  _1226
REMARK  562  A    between atoms: _1225  and  _1228
REMARK  563  A    between atoms: _1231  and  _1232
REMARK  564  A    between atoms: _1232  and  _1233
REMARK  565  A    between atoms: _1232  and  _1235
REMARK  566  A    between atoms: _1238  and  _1239
REMARK  567  A    between atoms: _1239  and  _1240
REMARK  568  A    between atoms: _1239  and  _1242
REMARK  569  A    between atoms: _1242  and  _1243
REMARK  570  A    between atoms: _1243  and  _1244
REMARK  571  A    between atoms: _1244  and  _1245
REMARK  572  A    between atoms: _1249  and  _1250
REMARK  573  A    between atoms: _1250  and  _1251
REMARK  574  A    between atoms: _1250  and  _1253
REMARK  575  A    between atoms: _1256  and  _1257
REMARK  576  A    between atoms: _1257  and  _1258
REMARK  577  A    between atoms: _1257  and  _1260
REMARK  578  A    between atoms: _1260  and  _1261
REMARK  579  A    between atoms: _1264  and  _1265
REMARK  580  A    between atoms: _1265  and  _1266
REMARK  581  A    between atoms: _1265  and  _1268
REMARK  582  A    between atoms: _1271  and  _1272
REMARK  583  A    between atoms: _1272  and  _1273
REMARK  584  A    between atoms: _1275  and  _1276
REMARK  585  A    between atoms: _1276  and  _1277
REMARK  586  A    between atoms: _1276  and  _1279
REMARK  587  A    between atoms: _1279  and  _1280
REMARK  588  A    between atoms: _1280  and  _1281
REMARK  589  A    between atoms: _1285  and  _1286
REMARK  590  A    between atoms: _1291  and  _1293
REMARK  591  A    between atoms: _1298  and  _1299
REMARK  592  A    between atoms: _1299  and  _1301
REMARK  593  A    between atoms: _1300  and  _1301
REMARK  594  A    between atoms: _1304  and  _1305
REMARK  595  A    between atoms: _1305  and  _1306
REMARK  596  A    between atoms: _1308  and  _1309
REMARK  597  A    between atoms: _1309  and  _1310
REMARK  598  A    between atoms: _1309  and  _1312
REMARK  599  A    between atoms: _1312  and  _1313
REMARK  600  A    between atoms: _1313  and  _1314
REMARK  601  A    between atoms: _1314  and  _1315
REMARK  602  A    between atoms: _1319  and  _1320
REMARK  603  A    between atoms: _1320  and  _1321
REMARK  604  A    between atoms: _1323  and  _1324
REMARK  605  A    between atoms: _1324  and  _1325
REMARK  606  A    between atoms: _1324  and  _1327
REMARK  607  A    between atoms: _1330  and  _1331
REMARK  608  A    between atoms: _1331  and  _1332
REMARK  609  A    between atoms: _1331  and  _1334
REMARK  610  A    between atoms: _1334  and  _1335
REMARK  611  A    between atoms: _1335  and  _1336
REMARK  612  A    between atoms: _1336  and  _1337
REMARK  613  A    between atoms: _1339  and  _1340
REMARK  614  A    between atoms: _1340  and  _1341
REMARK  615  A    between atoms: _1340  and  _1343
REMARK  616  A    between atoms: _1346  and  _1347
REMARK  617  A    between atoms: _1347  and  _1348
REMARK  618  A    between atoms: _1347  and  _1350
REMARK  619  A    between atoms: _1350  and  _1351
REMARK  620  A    between atoms: _1354  and  _1355
REMARK  621  A    between atoms: _1355  and  _1356
REMARK  622  A    between atoms: _1355  and  _1358
REMARK  623  A    between atoms: _1358  and  _1359
REMARK  624  A    between atoms: _1362  and  _1363
REMARK  625  A    between atoms: _1363  and  _1364
REMARK  626  A    between atoms: _1363  and  _1366
REMARK  627  A    between atoms: _1366  and  _1367
REMARK  628  A    between atoms: _1372  and  _1373
REMARK  629  A    between atoms: _1373  and  _1374
REMARK  630  A    between atoms: _1373  and  _1376
REMARK  631  A    between atoms: _1376  and  _1377
REMARK  632  A    between atoms: _1380  and  _1381
REMARK  633  A    between atoms: _1381  and  _1382
REMARK  634  A    between atoms: _1381  and  _1384
REMARK  635  A    between atoms: _1384  and  _1385
REMARK  636  A    between atoms: _1385  and  _1386
REMARK  637  A    between atoms: _1386  and  _1387
REMARK  638  A    between atoms: _1389  and  _1390
REMARK  639  A    between atoms: _1390  and  _1391
REMARK  640  A    between atoms: _1390  and  _1393
REMARK  641  A    between atoms: _1393  and  _1394
REMARK  642  A    between atoms: _1394  and  _1395
REMARK  643  A    between atoms: _1398  and  _1399
REMARK  644  A    between atoms: _1399  and  _1400
REMARK  645  A    between atoms: _1399  and  _1402
REMARK  646  A    between atoms: _1402  and  _1403
REMARK  647  A    between atoms: _1406  and  _1407
REMARK  648  A    between atoms: _1407  and  _1408
REMARK  649  A    between atoms: _1407  and  _1410
REMARK  650  A    between atoms: _1410  and  _1411
REMARK  651  A    between atoms: _1411  and  _1412
REMARK  652  A    between atoms: _1415  and  _1416
REMARK  653  A    between atoms: _1416  and  _1417
REMARK  654  A    between atoms: _1416  and  _1419
REMARK  655  A    between atoms: _1422  and  _1423
REMARK  656  A    between atoms: _1423  and  _1424
REMARK  657  A    between atoms: _1423  and  _1426
REMARK  658  A    between atoms: _1426  and  _1427
REMARK  659  A    between atoms: _1427  and  _1428
REMARK  660  A    between atoms: _1431  and  _1432
REMARK  661  A    between atoms: _1432  and  _1433
REMARK  662  A    between atoms: _1432  and  _1435
REMARK  663  A    between atoms: _1435  and  _1436
REMARK  664  A    between atoms: _1443  and  _1444
REMARK  665  A    between atoms: _1444  and  _1445
REMARK  666  A    between atoms: _1444  and  _1447
REMARK  667  A    between atoms: _1447  and  _1448
REMARK  668  A    between atoms: _1451  and  _1452
REMARK  669  A    between atoms: _1452  and  _1453
REMARK  670  A    between atoms: _1452  and  _1455
REMARK  671  A    between atoms: _1455  and  _1456
REMARK  672  A    between atoms: _1456  and  _1457
REMARK  673  A    between atoms: _1460  and  _1461
REMARK  674  A    between atoms: _1461  and  _1462
REMARK  675  A    between atoms: _1461  and  _1464
REMARK  676  A    between atoms: _1464  and  _1465
REMARK  677  A    between atoms: _1465  and  _1466
REMARK  678  A    between atoms: _1469  and  _1470
REMARK  679  A    between atoms: _1470  and  _1471
REMARK  680  A    between atoms: _1470  and  _1473
REMARK  681  A    between atoms: _1473  and  _1474
REMARK  682  A    between atoms: _1474  and  _1475
REMARK  683  A    between atoms: _1475  and  _1476
REMARK  684  A    between atoms: _1480  and  _1481
REMARK  685  A    between atoms: _1481  and  _1482
REMARK  686  A    between atoms: _1481  and  _1484
REMARK  687  A    between atoms: _1484  and  _1485
REMARK  688  A    between atoms: _1485  and  _1486
REMARK  689  A    between atoms: _1486  and  _1487
REMARK  690  A    between atoms: _1491  and  _1492
REMARK  691  A    between atoms: _1492  and  _1493
REMARK  692  A    between atoms: _1492  and  _1495
REMARK  693  A    between atoms: _1495  and  _1496
REMARK  694  A    between atoms: _1499  and  _1500
REMARK  695  A    between atoms: _1500  and  _1501
REMARK  696  A    between atoms: _1500  and  _1503
REMARK  697  A    between atoms: _1503  and  _1504
REMARK  698  A    between atoms: _1504  and  _1505
REMARK  699  A    between atoms: _1505  and  _1506
REMARK  700  A    between atoms: _1508  and  _1509
REMARK  701  A    between atoms: _1509  and  _1510
REMARK  702  A    between atoms: _1509  and  _1512
REMARK  703  A    between atoms: _1512  and  _1513
REMARK  704  A    between atoms: _1513  and  _1514
REMARK  705  A    between atoms: _1517  and  _1518
REMARK  706  A    between atoms: _1518  and  _1519
REMARK  707  A    between atoms: _1518  and  _1521
REMARK  708  A    between atoms: _1521  and  _1522
REMARK  709  A    between atoms: _1525  and  _1526
REMARK  710  A    between atoms: _1526  and  _1527
REMARK  711  A    between atoms: _1526  and  _1529
REMARK  712  A    between atoms: _1532  and  _1533
REMARK  713  A    between atoms: _1533  and  _1534
REMARK  714  A    between atoms: _1533  and  _1536
REMARK  715  A    between atoms: _1536  and  _1537
REMARK  716  A    between atoms: _1537  and  _1538
REMARK  717  A    between atoms: _1538  and  _1539
REMARK  718  A    between atoms: _1541  and  _1542
REMARK  719  A    between atoms: _1542  and  _1543
REMARK  720  A    between atoms: _1542  and  _1545
REMARK  721  A    between atoms: _1545  and  _1546
REMARK  722  A    between atoms: _1546  and  _1547
REMARK  723  A    between atoms: _1547  and  _1548
REMARK  724  A    between atoms: _1550  and  _1551
REMARK  725  A    between atoms: _1551  and  _1552
REMARK  726  A    between atoms: _1551  and  _1554
REMARK  727  A    between atoms: _1554  and  _1555
REMARK  728  A    between atoms: _1560  and  _1561
REMARK  729  A    between atoms: _1561  and  _1562
REMARK  730  A    between atoms: _1561  and  _1564
REMARK  731  A    between atoms: _1566  and  _1567
REMARK  732  A    between atoms: _1567  and  _1568
REMARK  733  A    between atoms: _1567  and  _1570
REMARK  734  A    between atoms: _1570  and  _1571
REMARK  735  A    between atoms: _1571  and  _1572
REMARK  736  A    between atoms: _1575  and  _1576
REMARK  737  A    between atoms: _1576  and  _1577
REMARK  738  A    between atoms: _1576  and  _1579
REMARK  739  A    between atoms: _1579  and  _1580
REMARK  740  A    between atoms: _1586  and  _1587
REMARK  741  A    between atoms: _1587  and  _1588
REMARK  742  A    between atoms: _1587  and  _1590
REMARK  743  A    between atoms: _1590  and  _1591
REMARK  744  A    between atoms: _1594  and  _1595
REMARK  745  A    between atoms: _1595  and  _1596
REMARK  746  A    between atoms: _1598  and  _1599
REMARK  747  A    between atoms: _1599  and  _1600
REMARK  748  A    between atoms: _1599  and  _1602
REMARK  749  A    between atoms: _1602  and  _1603
REMARK  750  A    between atoms: _1611  and  _1612
REMARK  751  A    between atoms: _1617  and  _1618
REMARK  752  A    between atoms: _1618  and  _1619
REMARK  753  A    between atoms: _1618  and  _1621
REMARK  754  A    between atoms: _1621  and  _1622
REMARK  755  A    between atoms: _1625  and  _1626
REMARK  756  A    between atoms: _1626  and  _1627
REMARK  757  A    between atoms: _1626  and  _1629
REMARK  758  A    between atoms: _1632  and  _1633
REMARK  759  A    between atoms: _1633  and  _1634
REMARK  760  A    between atoms: _1633  and  _1636
REMARK  761  A    between atoms: _1636  and  _1637
REMARK  762  A    between atoms: _1640  and  _1641
REMARK  763  A    between atoms: _1641  and  _1642
REMARK  764  A    between atoms: _1641  and  _1644
REMARK  765  A    between atoms: _1644  and  _1645
REMARK  766  A    between atoms: _1651  and  _1652
REMARK  767  A    between atoms: _1652  and  _1653
REMARK  768  A    between atoms: _1652  and  _1655
REMARK  769  A    between atoms: _1658  and  _1659
REMARK  770  A    between atoms: _1659  and  _1660
REMARK  771  A    between atoms: _1659  and  _1662
REMARK  772  A    between atoms: _1662  and  _1663
REMARK  773  A    between atoms: _1663  and  _1664
REMARK  774  A    between atoms: _1667  and  _1668
REMARK  775  A    between atoms: _1668  and  _1669
REMARK  776  A    between atoms: _1668  and  _1671
REMARK  777  A    between atoms: _1671  and  _1672
REMARK  778  A    between atoms: _1672  and  _1673
REMARK  779  A    between atoms: _1673  and  _1674
REMARK                            x       y       z     vdW  Elec       q    Type
REMARK                         _______ _______ _______ _____ _____    ______ ____
ROOT
ATOM      1  C   UNL     1       1.542  26.086   7.126  0.00  0.00    +0.126 C 
ATOM      2  C   UNL     1       0.228  25.923   6.386  0.00  0.00    +0.365 C 
ATOM      3  O   UNL     1      -0.449  24.889   6.587  0.00  0.00    -0.246 OA
ATOM      4  O   UNL     1      -0.134  26.843   5.618  0.00  0.00    -0.246 OA
ENDROOT
TORSDOF 0
REMARK  Name = /Users/mlugowska/PhD/ML_residence_time_prediction/protein_files/5NYH_protein.pdb
REMARK  779 active torsions:
REMARK  status: ('A' for Active; 'I' for Inactive)
REMARK    1  A    between atoms: _2  and  _3
REMARK    2  A    between atoms: _2  and  _5
REMARK    3  A    between atoms: _5  and  _6
REMARK    4  A    between atoms: _6  and  _7
REMARK    5  A    between atoms: _10  and  _11
REMARK    6  A    between atoms: _11  and  _12
REMARK    7  A    between atoms: _11  and  _14
REMARK    8  A    between atoms: _17  and  _18
REMARK    9  A    between atoms: _18  and  _19
REMARK   10  A    between atoms: _18  and  _21
REMARK   11  A    between atoms: _21  and  _22
REMARK   12  A    between atoms: _22  and  _23
REMARK   13  A    between atoms: _26  and  _27
REMARK   14  A    between atoms: _27  and  _28
REMARK   15  A    between atoms: _27  and  _30
REMARK   16  A    between atoms: _33  and  _34
REMARK   17  A    between atoms: _34  and  _35
REMARK   18  A    between atoms: _34  and  _37
REMARK   19  A    between atoms: _37  and  _38
REMARK   20  A    between atoms: _44  and  _45
REMARK   21  A    between atoms: _45  and  _46
REMARK   22  A    between atoms: _49  and  _50
REMARK   23  A    between atoms: _50  and  _51
REMARK   24  A    between atoms: _50  and  _53
REMARK   25  A    between atoms: _53  and  _54
REMARK   26  A    between atoms: _60  and  _61
REMARK   27  A    between atoms: _61  and  _62
REMARK   28  A    between atoms: _61  and  _64
REMARK   29  A    between atoms: _64  and  _65
REMARK   30  A    between atoms: _65  and  _66
REMARK   31  A    between atoms: _69  and  _70
REMARK   32  A    between atoms: _70  and  _71
REMARK   33  A    between atoms: _74  and  _75
REMARK   34  A    between atoms: _75  and  _76
REMARK   35  A    between atoms: _75  and  _78
REMARK   36  A    between atoms: _78  and  _79
REMARK   37  A    between atoms: _79  and  _80
REMARK   38  A    between atoms: _83  and  _84
REMARK   39  A    between atoms: _84  and  _85
REMARK   40  A    between atoms: _84  and  _87
REMARK   41  A    between atoms: _87  and  _88
REMARK   42  A    between atoms: _91  and  _92
REMARK   43  A    between atoms: _92  and  _93
REMARK   44  A    between atoms: _96  and  _97
REMARK   45  A    between atoms: _97  and  _98
REMARK   46  A    between atoms: _97  and  _100
REMARK   47  A    between atoms: _100  and  _101
REMARK   48  A    between atoms: _101  and  _102
REMARK   49  A    between atoms: _105  and  _106
REMARK   50  A    between atoms: _106  and  _107
REMARK   51  A    between atoms: _106  and  _109
REMARK   52  A    between atoms: _109  and  _110
REMARK   53  A    between atoms: _113  and  _114
REMARK   54  A    between atoms: _114  and  _115
REMARK   55  A    between atoms: _114  and  _117
REMARK   56  A    between atoms: _117  and  _118
REMARK   57  A    between atoms: _118  and  _119
REMARK   58  A    between atoms: _121  and  _122
REMARK   59  A    between atoms: _122  and  _123
REMARK   60  A    between atoms: _122  and  _125
REMARK   61  A    between atoms: _127  and  _128
REMARK   62  A    between atoms: _128  and  _129
REMARK   63  A    between atoms: _128  and  _131
REMARK   64  A    between atoms: _131  and  _132
REMARK   65  A    between atoms: _135  and  _136
REMARK   66  A    between atoms: _136  and  _137
REMARK   67  A    between atoms: _136  and  _139
REMARK   68  A    between atoms: _139  and  _140
REMARK   69  A    between atoms: _143  and  _144
REMARK   70  A    between atoms: _144  and  _145
REMARK   71  A    between atoms: _144  and  _147
REMARK   72  A    between atoms: _147  and  _148
REMARK   73  A    between atoms: _151  and  _152
REMARK   74  A    between atoms: _152  and  _153
REMARK   75  A    between atoms: _152  and  _155
REMARK   76  A    between atoms: _155  and  _156
REMARK   77  A    between atoms: _159  and  _160
REMARK   78  A    between atoms: _160  and  _161
REMARK   79  A    between atoms: _160  and  _163
REMARK   80  A    between atoms: _166  and  _167
REMARK   81  A    between atoms: _167  and  _168
REMARK   82  A    between atoms: _167  and  _170
REMARK   83  A    between atoms: _170  and  _171
REMARK   84  A    between atoms: _177  and  _178
REMARK   85  A    between atoms: _178  and  _179
REMARK   86  A    between atoms: _178  and  _181
REMARK   87  A    between atoms: _181  and  _182
REMARK   88  A    between atoms: _189  and  _190
REMARK   89  A    between atoms: _190  and  _191
REMARK   90  A    between atoms: _190  and  _193
REMARK   91  A    between atoms: _195  and  _196
REMARK   92  A    between atoms: _196  and  _197
REMARK   93  A    between atoms: _196  and  _199
REMARK   94  A    between atoms: _199  and  _200
REMARK   95  A    between atoms: _203  and  _204
REMARK   96  A    between atoms: _204  and  _205
REMARK   97  A    between atoms: _204  and  _207
REMARK   98  A    between atoms: _207  and  _208
REMARK   99  A    between atoms: _208  and  _209
REMARK  100  A    between atoms: _209  and  _210
REMARK  101  A    between atoms: _212  and  _213
REMARK  102  A    between atoms: _213  and  _214
REMARK  103  A    between atoms: _213  and  _216
REMARK  104  A    between atoms: _216  and  _217
REMARK  105  A    between atoms: _217  and  _218
REMARK  106  A    between atoms: _221  and  _222
REMARK  107  A    between atoms: _222  and  _223
REMARK  108  A    between atoms: _222  and  _225
REMARK  109  A    between atoms: _225  and  _226
REMARK  110  A    between atoms: _229  and  _230
REMARK  111  A    between atoms: _230  and  _231
REMARK  112  A    between atoms: _230  and  _233
REMARK  113  A    between atoms: _233  and  _234
REMARK  114  A    between atoms: _240  and  _241
REMARK  115  A    between atoms: _241  and  _242
REMARK  116  A    between atoms: _241  and  _244
REMARK  117  A    between atoms: _244  and  _245
REMARK  118  A    between atoms: _248  and  _249
REMARK  119  A    between atoms: _249  and  _250
REMARK  120  A    between atoms: _249  and  _252
REMARK  121  A    between atoms: _252  and  _253
REMARK  122  A    between atoms: _253  and  _254
REMARK  123  A    between atoms: _254  and  _255
REMARK  124  A    between atoms: _259  and  _260
REMARK  125  A    between atoms: _260  and  _261
REMARK  126  A    between atoms: _260  and  _263
REMARK  127  A    between atoms: _263  and  _264
REMARK  128  A    between atoms: _264  and  _265
REMARK  129  A    between atoms: _268  and  _269
REMARK  130  A    between atoms: _269  and  _270
REMARK  131  A    between atoms: _269  and  _272
REMARK  132  A    between atoms: _272  and  _273
REMARK  133  A    between atoms: _276  and  _277
REMARK  134  A    between atoms: _277  and  _278
REMARK  135  A    between atoms: _277  and  _280
REMARK  136  A    between atoms: _280  and  _281
REMARK  137  A    between atoms: _284  and  _285
REMARK  138  A    between atoms: _285  and  _286
REMARK  139  A    between atoms: _285  and  _288
REMARK  140  A    between atoms: _290  and  _291
REMARK  141  A    between atoms: _291  and  _292
REMARK  142  A    between atoms: _291  and  _294
REMARK  143  A    between atoms: _294  and  _295
REMARK  144  A    between atoms: _298  and  _299
REMARK  145  A    between atoms: _299  and  _300
REMARK  146  A    between atoms: _299  and  _302
REMARK  147  A    between atoms: _304  and  _305
REMARK  148  A    between atoms: _305  and  _306
REMARK  149  A    between atoms: _305  and  _308
REMARK  150  A    between atoms: _310  and  _311
REMARK  151  A    between atoms: _311  and  _312
REMARK  152  A    between atoms: _311  and  _314
REMARK  153  A    between atoms: _314  and  _315
REMARK  154  A    between atoms: _318  and  _319
REMARK  155  A    between atoms: _319  and  _320
REMARK  156  A    between atoms: _323  and  _324
REMARK  157  A    between atoms: _324  and  _325
REMARK  158  A    between atoms: _324  and  _327
REMARK  159  A    between atoms: _327  and  _328
REMARK  160  A    between atoms: _331  and  _332
REMARK  161  A    between atoms: _332  and  _333
REMARK  162  A    between atoms: _332  and  _335
REMARK  163  A    between atoms: _335  and  _336
REMARK  164  A    between atoms: _339  and  _340
REMARK  165  A    between atoms: _340  and  _341
REMARK  166  A    between atoms: _340  and  _343
REMARK  167  A    between atoms: _343  and  _344
REMARK  168  A    between atoms: _344  and  _345
REMARK  169  A    between atoms: _345  and  _346
REMARK  170  A    between atoms: _348  and  _349
REMARK  171  A    between atoms: _349  and  _350
REMARK  172  A    between atoms: _349  and  _352
REMARK  173  A    between atoms: _352  and  _353
REMARK  174  A    between atoms: _356  and  _357
REMARK  175  A    between atoms: _357  and  _358
REMARK  176  A    between atoms: _357  and  _360
REMARK  177  A    between atoms: _360  and  _361
REMARK  178  A    between atoms: _361  and  _362
REMARK  179  A    between atoms: _362  and  _363
REMARK  180  A    between atoms: _367  and  _368
REMARK  181  A    between atoms: _368  and  _369
REMARK  182  A    between atoms: _368  and  _371
REMARK  183  A    between atoms: _371  and  _372
REMARK  184  A    between atoms: _379  and  _380
REMARK  185  A    between atoms: _380  and  _381
REMARK  186  A    between atoms: _380  and  _383
REMARK  187  A    between atoms: _383  and  _384
REMARK  188  A    between atoms: _384  and  _385
REMARK  189  A    between atoms: _388  and  _389
REMARK  190  A    between atoms: _389  and  _390
REMARK  191  A    between atoms: _389  and  _392
REMARK  192  A    between atoms: _394  and  _395
REMARK  193  A    between atoms: _395  and  _396
REMARK  194  A    between atoms: _395  and  _398
REMARK  195  A    between atoms: _398  and  _399
REMARK  196  A    between atoms: _402  and  _403
REMARK  197  A    between atoms: _403  and  _404
REMARK  198  A    between atoms: _403  and  _406
REMARK  199  A    between atoms: _409  and  _410
REMARK  200  A    between atoms: _410  and  _411
REMARK  201  A    between atoms: _410  and  _413
REMARK  202  A    between atoms: _413  and  _414
REMARK  203  A    between atoms: _418  and  _419
REMARK  204  A    between atoms: _424  and  _425
REMARK  205  A    between atoms: _425  and  _426
REMARK  206  A    between atoms: _425  and  _428
REMARK  207  A    between atoms: _430  and  _431
REMARK  208  A    between atoms: _431  and  _432
REMARK  209  A    between atoms: _431  and  _434
REMARK  210  A    between atoms: _434  and  _435
REMARK  211  A    between atoms: _435  and  _436
REMARK  212  A    between atoms: _436  and  _437
REMARK  213  A    between atoms: _439  and  _440
REMARK  214  A    between atoms: _440  and  _441
REMARK  215  A    between atoms: _440  and  _443
REMARK  216  A    between atoms: _443  and  _444
REMARK  217  A    between atoms: _447  and  _448
REMARK  218  A    between atoms: _448  and  _449
REMARK  219  A    between atoms: _448  and  _451
REMARK  220  A    between atoms: _451  and  _452
REMARK  221  A    between atoms: _455  and  _456
REMARK  222  A    between atoms: _456  and  _457
REMARK  223  A    between atoms: _456  and  _459
REMARK  224  A    between atoms: _461  and  _462
REMARK  225  A    between atoms: _462  and  _463
REMARK  226  A    between atoms: _465  and  _466
REMARK  227  A    between atoms: _466  and  _467
REMARK  228  A    between atoms: _466  and  _469
REMARK  229  A    between atoms: _469  and  _470
REMARK  230  A    between atoms: _470  and  _471
REMARK  231  A    between atoms: _471  and  _472
REMARK  232  A    between atoms: _474  and  _475
REMARK  233  A    between atoms: _475  and  _476
REMARK  234  A    between atoms: _475  and  _478
REMARK  235  A    between atoms: _478  and  _479
REMARK  236  A    between atoms: _479  and  _480
REMARK  237  A    between atoms: _483  and  _484
REMARK  238  A    between atoms: _484  and  _485
REMARK  239  A    between atoms: _484  and  _487
REMARK  240  A    between atoms: _487  and  _488
REMARK  241  A    between atoms: _491  and  _492
REMARK  242  A    between atoms: _492  and  _493
REMARK  243  A    between atoms: _492  and  _495
REMARK  244  A    between atoms: _495  and  _496
REMARK  245  A    between atoms: _501  and  _502
REMARK  246  A    between atoms: _502  and  _503
REMARK  247  A    between atoms: _502  and  _505
REMARK  248  A    between atoms: _505  and  _506
REMARK  249  A    between atoms: _509  and  _510
REMARK  250  A    between atoms: _510  and  _511
REMARK  251  A    between atoms: _510  and  _513
REMARK  252  A    between atoms: _513  and  _514
REMARK  253  A    between atoms: _517  and  _518
REMARK  254  A    between atoms: _518  and  _519
REMARK  255  A    between atoms: _518  and  _521
REMARK  256  A    between atoms: _521  and  _522
REMARK  257  A    between atoms: _525  and  _526
REMARK  258  A    between atoms: _526  and  _527
REMARK  259  A    between atoms: _526  and  _529
REMARK  260  A    between atoms: _529  and  _530
REMARK  261  A    between atoms: _534  and  _535
REMARK  262  A    between atoms: _540  and  _541
REMARK  263  A    between atoms: _541  and  _542
REMARK  264  A    between atoms: _541  and  _544
REMARK  265  A    between atoms: _544  and  _545
REMARK  266  A    between atoms: _548  and  _549
REMARK  267  A    between atoms: _549  and  _552
REMARK  268  A    between atoms: _552  and  _553
REMARK  269  A    between atoms: _553  and  _554
REMARK  270  A    between atoms: _554  and  _555
REMARK  271  A    between atoms: _568  and  _569
REMARK  272  A    between atoms: _576  and  _577
REMARK  273  A    between atoms: _576  and  _579
REMARK  274  A    between atoms: _579  and  _580
REMARK  275  A    between atoms: _583  and  _584
REMARK  276  A    between atoms: _584  and  _585
REMARK  277  A    between atoms: _584  and  _587
REMARK  278  A    between atoms: _587  and  _588
REMARK  279  A    between atoms: _588  and  _589
REMARK  280  A    between atoms: _589  and  _590
REMARK  281  A    between atoms: _594  and  _595
REMARK  282  A    between atoms: _595  and  _596
REMARK  283  A    between atoms: _595  and  _598
REMARK  284  A    between atoms: _601  and  _602
REMARK  285  A    between atoms: _602  and  _603
REMARK  286  A    between atoms: _602  and  _605
REMARK  287  A    between atoms: _605  and  _606
REMARK  288  A    between atoms: _609  and  _610
REMARK  289  A    between atoms: _610  and  _611
REMARK  290  A    between atoms: _610  and  _613
REMARK  291  A    between atoms: _616  and  _617
REMARK  292  A    between atoms: _617  and  _618
REMARK  293  A    between atoms: _617  and  _620
REMARK  294  A    between atoms: _620  and  _621
REMARK  295  A    between atoms: _624  and  _625
REMARK  296  A    between atoms: _625  and  _626
REMARK  297  A    between atoms: _625  and  _628
REMARK  298  A    between atoms: _631  and  _632
REMARK  299  A    between atoms: _632  and  _633
REMARK  300  A    between atoms: _632  and  _635
REMARK  301  A    between atoms: _635  and  _636
REMARK  302  A    between atoms: _639  and  _640
REMARK  303  A    between atoms: _640  and  _641
REMARK  304  A    between atoms: _640  and  _643
REMARK  305  A    between atoms: _646  and  _647
REMARK  306  A    between atoms: _647  and  _648
REMARK  307  A    between atoms: _650  and  _651
REMARK  308  A    between atoms: _651  and  _652
REMARK  309  A    between atoms: _651  and  _654
REMARK  310  A    between atoms: _654  and  _655
REMARK  311  A    between atoms: _658  and  _659
REMARK  312  A    between atoms: _659  and  _660
REMARK  313  A    between atoms: _662  and  _663
REMARK  314  A    between atoms: _663  and  _664
REMARK  315  A    between atoms: _663  and  _666
REMARK  316  A    between atoms: _666  and  _667
REMARK  317  A    between atoms: _667  and  _668
REMARK  318  A    between atoms: _670  and  _671
REMARK  319  A    between atoms: _671  and  _672
REMARK  320  A    between atoms: _671  and  _674
REMARK  321  A    between atoms: _677  and  _678
REMARK  322  A    between atoms: _678  and  _679
REMARK  323  A    between atoms: _678  and  _681
REMARK  324  A    between atoms: _681  and  _682
REMARK  325  A    between atoms: _682  and  _683
REMARK  326  A    between atoms: _683  and  _684
REMARK  327  A    between atoms: _686  and  _687
REMARK  328  A    between atoms: _687  and  _688
REMARK  329  A    between atoms: _691  and  _692
REMARK  330  A    between atoms: _692  and  _693
REMARK  331  A    between atoms: _692  and  _695
REMARK  332  A    between atoms: _695  and  _696
REMARK  333  A    between atoms: _699  and  _700
REMARK  334  A    between atoms: _700  and  _701
REMARK  335  A    between atoms: _700  and  _703
REMARK  336  A    between atoms: _703  and  _704
REMARK  337  A    between atoms: _707  and  _708
REMARK  338  A    between atoms: _708  and  _709
REMARK  339  A    between atoms: _708  and  _711
REMARK  340  A    between atoms: _711  and  _712
REMARK  341  A    between atoms: _715  and  _716
REMARK  342  A    between atoms: _716  and  _717
REMARK  343  A    between atoms: _716  and  _719
REMARK  344  A    between atoms: _719  and  _720
REMARK  345  A    between atoms: _723  and  _724
REMARK  346  A    between atoms: _724  and  _725
REMARK  347  A    between atoms: _724  and  _727
REMARK  348  A    between atoms: _727  and  _728
REMARK  349  A    between atoms: _731  and  _732
REMARK  350  A    between atoms: _732  and  _733
REMARK  351  A    between atoms: _732  and  _735
REMARK  352  A    between atoms: _735  and  _736
REMARK  353  A    between atoms: _739  and  _740
REMARK  354  A    between atoms: _740  and  _741
REMARK  355  A    between atoms: _743  and  _744
REMARK  356  A    between atoms: _744  and  _745
REMARK  357  A    between atoms: _744  and  _747
REMARK  358  A    between atoms: _750  and  _751
REMARK  359  A    between atoms: _751  and  _752
REMARK  360  A    between atoms: _751  and  _754
REMARK  361  A    between atoms: _754  and  _755
REMARK  362  A    between atoms: _758  and  _759
REMARK  363  A    between atoms: _759  and  _760
REMARK  364  A    between atoms: _763  and  _764
REMARK  365  A    between atoms: _764  and  _765
REMARK  366  A    between atoms: _764  and  _767
REMARK  367  A    between atoms: _767  and  _768
REMARK  368  A    between atoms: _768  and  _769
REMARK  369  A    between atoms: _769  and  _770
REMARK  370  A    between atoms: _772  and  _773
REMARK  371  A    between atoms: _773  and  _774
REMARK  372  A    between atoms: _773  and  _776
REMARK  373  A    between atoms: _778  and  _779
REMARK  374  A    between atoms: _779  and  _780
REMARK  375  A    between atoms: _782  and  _783
REMARK  376  A    between atoms: _783  and  _784
REMARK  377  A    between atoms: _783  and  _786
REMARK  378  A    between atoms: _789  and  _790
REMARK  379  A    between atoms: _790  and  _791
REMARK  380  A    between atoms: _790  and  _793
REMARK  381  A    between atoms: _793  and  _794
REMARK  382  A    between atoms: _794  and  _795
REMARK  383  A    between atoms: _795  and  _796
REMARK  384  A    between atoms: _798  and  _799
REMARK  385  A    between atoms: _799  and  _800
REMARK  386  A    between atoms: _803  and  _804
REMARK  387  A    between atoms: _804  and  _805
REMARK  388  A    between atoms: _804  and  _807
REMARK  389  A    between atoms: _807  and  _808
REMARK  390  A    between atoms: _814  and  _815
REMARK  391  A    between atoms: _815  and  _816
REMARK  392  A    between atoms: _815  and  _818
REMARK  393  A    between atoms: _818  and  _819
REMARK  394  A    between atoms: _819  and  _820
REMARK  395  A    between atoms: _822  and  _823
REMARK  396  A    between atoms: _823  and  _824
REMARK  397  A    between atoms: _823  and  _826
REMARK  398  A    between atoms: _826  and  _827
REMARK  399  A    between atoms: _827  and  _828
REMARK  400  A    between atoms: _831  and  _832
REMARK  401  A    between atoms: _832  and  _833
REMARK  402  A    between atoms: _836  and  _837
REMARK  403  A    between atoms: _837  and  _838
REMARK  404  A    between atoms: _837  and  _840
REMARK  405  A    between atoms: _840  and  _841
REMARK  406  A    between atoms: _844  and  _845
REMARK  407  A    between atoms: _845  and  _846
REMARK  408  A    between atoms: _845  and  _848
REMARK  409  A    between atoms: _848  and  _849
REMARK  410  A    between atoms: _849  and  _850
REMARK  411  A    between atoms: _853  and  _854
REMARK  412  A    between atoms: _854  and  _855
REMARK  413  A    between atoms: _858  and  _859
REMARK  414  A    between atoms: _859  and  _860
REMARK  415  A    between atoms: _862  and  _863
REMARK  416  A    between atoms: _863  and  _864
REMARK  417  A    between atoms: _867  and  _868
REMARK  418  A    between atoms: _868  and  _869
REMARK  419  A    between atoms: _868  and  _871
REMARK  420  A    between atoms: _871  and  _872
REMARK  421  A    between atoms: _875  and  _876
REMARK  422  A    between atoms: _876  and  _877
REMARK  423  A    between atoms: _876  and  _879
REMARK  424  A    between atoms: _879  and  _880
REMARK  425  A    between atoms: _883  and  _884
REMARK  426  A    between atoms: _884  and  _887
REMARK  427  A    between atoms: _906  and  _907
REMARK  428  A    between atoms: _906  and  _909
REMARK  429  A    between atoms: _909  and  _910
REMARK  430  A    between atoms: _913  and  _914
REMARK  431  A    between atoms: _914  and  _915
REMARK  432  A    between atoms: _917  and  _918
REMARK  433  A    between atoms: _918  and  _919
REMARK  434  A    between atoms: _918  and  _921
REMARK  435  A    between atoms: _921  and  _922
REMARK  436  A    between atoms: _922  and  _923
REMARK  437  A    between atoms: _926  and  _927
REMARK  438  A    between atoms: _927  and  _928
REMARK  439  A    between atoms: _927  and  _930
REMARK  440  A    between atoms: _930  and  _931
REMARK  441  A    between atoms: _937  and  _938
REMARK  442  A    between atoms: _938  and  _939
REMARK  443  A    between atoms: _941  and  _942
REMARK  444  A    between atoms: _942  and  _943
REMARK  445  A    between atoms: _942  and  _945
REMARK  446  A    between atoms: _948  and  _949
REMARK  447  A    between atoms: _949  and  _950
REMARK  448  A    between atoms: _952  and  _953
REMARK  449  A    between atoms: _953  and  _954
REMARK  450  A    between atoms: _953  and  _956
REMARK  451  A    between atoms: _956  and  _957
REMARK  452  A    between atoms: _963  and  _964
REMARK  453  A    between atoms: _964  and  _965
REMARK  454  A    between atoms: _964  and  _967
REMARK  455  A    between atoms: _967  and  _968
REMARK  456  A    between atoms: _975  and  _976
REMARK  457  A    between atoms: _976  and  _977
REMARK  458  A    between atoms: _976  and  _979
REMARK  459  A    between atoms: _981  and  _982
REMARK  460  A    between atoms: _982  and  _983
REMARK  461  A    between atoms: _986  and  _987
REMARK  462  A    between atoms: _987  and  _988
REMARK  463  A    between atoms: _987  and  _990
REMARK  464  A    between atoms: _990  and  _991
REMARK  465  A    between atoms: _998  and  _999
REMARK  466  A    between atoms: _999  and  _1000
REMARK  467  A    between atoms: _999  and  _1002
REMARK  468  A    between atoms: _1002  and  _1003
REMARK  469  A    between atoms: _1006  and  _1007
REMARK  470  A    between atoms: _1007  and  _1008
REMARK  471  A    between atoms: _1007  and  _1010
REMARK  472  A    between atoms: _1013  and  _1014
REMARK  473  A    between atoms: _1014  and  _1015
REMARK  474  A    between atoms: _1018  and  _1019
REMARK  475  A    between atoms: _1019  and  _1020
REMARK  476  A    between atoms: _1019  and  _1022
REMARK  477  A    between atoms: _1023  and  _1024
REMARK  478  A    between atoms: _1027  and  _1028
REMARK  479  A    between atoms: _1028  and  _1029
REMARK  480  A    between atoms: _1028  and  _1031
REMARK  481  A    between atoms: _1031  and  _1032
REMARK  482  A    between atoms: _1032  and  _1033
REMARK  483  A    between atoms: _1033  and  _1034
REMARK  484  A    between atoms: _1036  and  _1037
REMARK  485  A    between atoms: _1037  and  _1038
REMARK  486  A    between atoms: _1037  and  _1040
REMARK  487  A    between atoms: _1043  and  _1044
REMARK  488  A    between atoms: _1044  and  _1045
REMARK  489  A    between atoms: _1044  and  _1047
REMARK  490  A    between atoms: _1050  and  _1051
REMARK  491  A    between atoms: _1051  and  _1052
REMARK  492  A    between atoms: _1051  and  _1054
REMARK  493  A    between atoms: _1057  and  _1058
REMARK  494  A    between atoms: _1058  and  _1059
REMARK  495  A    between atoms: _1058  and  _1061
REMARK  496  A    between atoms: _1061  and  _1062
REMARK  497  A    between atoms: _1065  and  _1066
REMARK  498  A    between atoms: _1066  and  _1067
REMARK  499  A    between atoms: _1066  and  _1069
REMARK  500  A    between atoms: _1072  and  _1073
REMARK  501  A    between atoms: _1073  and  _1074
REMARK  502  A    between atoms: _1073  and  _1076
REMARK  503  A    between atoms: _1076  and  _1077
REMARK  504  A    between atoms: _1077  and  _1078
REMARK  505  A    between atoms: _1078  and  _1079
REMARK  506  A    between atoms: _1081  and  _1082
REMARK  507  A    between atoms: _1082  and  _1083
REMARK  508  A    between atoms: _1082  and  _1085
REMARK  509  A    between atoms: _1085  and  _1086
REMARK  510  A    between atoms: _1091  and  _1092
REMARK  511  A    between atoms: _1092  and  _1093
REMARK  512  A    between atoms: _1092  and  _1095
REMARK  513  A    between atoms: _1095  and  _1096
REMARK  514  A    between atoms: _1099  and  _1100
REMARK  515  A    between atoms: _1100  and  _1101
REMARK  516  A    between atoms: _1100  and  _1103
REMARK  517  A    between atoms: _1103  and  _1104
REMARK  518  A    between atoms: _1107  and  _1108
REMARK  519  A    between atoms: _1108  and  _1111
REMARK  520  A    between atoms: _1111  and  _1112
REMARK  521  A    between atoms: _1125  and  _1127
REMARK  522  A    between atoms: _1134  and  _1135
REMARK  523  A    between atoms: _1134  and  _1137
REMARK  524  A    between atoms: _1137  and  _1138
REMARK  525  A    between atoms: _1138  and  _1139
REMARK  526  A    between atoms: _1142  and  _1143
REMARK  527  A    between atoms: _1143  and  _1144
REMARK  528  A    between atoms: _1143  and  _1146
REMARK  529  A    between atoms: _1146  and  _1147
REMARK  530  A    between atoms: _1154  and  _1155
REMARK  531  A    between atoms: _1155  and  _1156
REMARK  532  A    between atoms: _1159  and  _1160
REMARK  533  A    between atoms: _1160  and  _1161
REMARK  534  A    between atoms: _1160  and  _1163
REMARK  535  A    between atoms: _1163  and  _1164
REMARK  536  A    between atoms: _1173  and  _1174
REMARK  537  A    between atoms: _1174  and  _1175
REMARK  538  A    between atoms: _1174  and  _1177
REMARK  539  A    between atoms: _1177  and  _1178
REMARK  540  A    between atoms: _1178  and  _1179
REMARK  541  A    between atoms: _1182  and  _1183
REMARK  542  A    between atoms: _1183  and  _1184
REMARK  543  A    between atoms: _1183  and  _1186
REMARK  544  A    between atoms: _1188  and  _1189
REMARK  545  A    between atoms: _1189  and  _1190
REMARK  546  A    between atoms: _1189  and  _1192
REMARK  547  A    between atoms: _1194  and  _1195
REMARK  548  A    between atoms: _1195  and  _1196
REMARK  549  A    between atoms: _1199  and  _1200
REMARK  550  A    between atoms: _1200  and  _1201
REMARK  551  A    between atoms: _1203  and  _1204
REMARK  552  A    between atoms: _1204  and  _1205
REMARK  553  A    between atoms: _1207  and  _1208
REMARK  554  A    between atoms: _1208  and  _1209
REMARK  555  A    between atoms: _1208  and  _1211
REMARK  556  A    between atoms: _1213  and  _1214
REMARK  557  A    between atoms: _1214  and  _1215
REMARK  558  A    between atoms: _1214  and  _1217
REMARK  559  A    between atoms: _1217  and  _1218
REMARK  560  A    between atoms: _1224  and  _1225
REMARK  561  A    between atoms: _1225  and  _1226
REMARK  562  A    between atoms: _1225  and  _1228
REMARK  563  A    between atoms: _1231  and  _1232
REMARK  564  A    between atoms: _1232  and  _1233
REMARK  565  A    between atoms: _1232  and  _1235
REMARK  566  A    between atoms: _1238  and  _1239
REMARK  567  A    between atoms: _1239  and  _1240
REMARK  568  A    between atoms: _1239  and  _1242
REMARK  569  A    between atoms: _1242  and  _1243
REMARK  570  A    between atoms: _1243  and  _1244
REMARK  571  A    between atoms: _1244  and  _1245
REMARK  572  A    between atoms: _1249  and  _1250
REMARK  573  A    between atoms: _1250  and  _1251
REMARK  574  A    between atoms: _1250  and  _1253
REMARK  575  A    between atoms: _1256  and  _1257
REMARK  576  A    between atoms: _1257  and  _1258
REMARK  577  A    between atoms: _1257  and  _1260
REMARK  578  A    between atoms: _1260  and  _1261
REMARK  579  A    between atoms: _1264  and  _1265
REMARK  580  A    between atoms: _1265  and  _1266
REMARK  581  A    between atoms: _1265  and  _1268
REMARK  582  A    between atoms: _1271  and  _1272
REMARK  583  A    between atoms: _1272  and  _1273
REMARK  584  A    between atoms: _1275  and  _1276
REMARK  585  A    between atoms: _1276  and  _1277
REMARK  586  A    between atoms: _1276  and  _1279
REMARK  587  A    between atoms: _1279  and  _1280
REMARK  588  A    between atoms: _1280  and  _1281
REMARK  589  A    between atoms: _1285  and  _1286
REMARK  590  A    between atoms: _1291  and  _1293
REMARK  591  A    between atoms: _1298  and  _1299
REMARK  592  A    between atoms: _1299  and  _1301
REMARK  593  A    between atoms: _1300  and  _1301
REMARK  594  A    between atoms: _1304  and  _1305
REMARK  595  A    between atoms: _1305  and  _1306
REMARK  596  A    between atoms: _1308  and  _1309
REMARK  597  A    between atoms: _1309  and  _1310
REMARK  598  A    between atoms: _1309  and  _1312
REMARK  599  A    between atoms: _1312  and  _1313
REMARK  600  A    between atoms: _1313  and  _1314
REMARK  601  A    between atoms: _1314  and  _1315
REMARK  602  A    between atoms: _1319  and  _1320
REMARK  603  A    between atoms: _1320  and  _1321
REMARK  604  A    between atoms: _1323  and  _1324
REMARK  605  A    between atoms: _1324  and  _1325
REMARK  606  A    between atoms: _1324  and  _1327
REMARK  607  A    between atoms: _1330  and  _1331
REMARK  608  A    between atoms: _1331  and  _1332
REMARK  609  A    between atoms: _1331  and  _1334
REMARK  610  A    between atoms: _1334  and  _1335
REMARK  611  A    between atoms: _1335  and  _1336
REMARK  612  A    between atoms: _1336  and  _1337
REMARK  613  A    between atoms: _1339  and  _1340
REMARK  614  A    between atoms: _1340  and  _1341
REMARK  615  A    between atoms: _1340  and  _1343
REMARK  616  A    between atoms: _1346  and  _1347
REMARK  617  A    between atoms: _1347  and  _1348
REMARK  618  A    between atoms: _1347  and  _1350
REMARK  619  A    between atoms: _1350  and  _1351
REMARK  620  A    between atoms: _1354  and  _1355
REMARK  621  A    between atoms: _1355  and  _1356
REMARK  622  A    between atoms: _1355  and  _1358
REMARK  623  A    between atoms: _1358  and  _1359
REMARK  624  A    between atoms: _1362  and  _1363
REMARK  625  A    between atoms: _1363  and  _1364
REMARK  626  A    between atoms: _1363  and  _1366
REMARK  627  A    between atoms: _1366  and  _1367
REMARK  628  A    between atoms: _1372  and  _1373
REMARK  629  A    between atoms: _1373  and  _1374
REMARK  630  A    between atoms: _1373  and  _1376
REMARK  631  A    between atoms: _1376  and  _1377
REMARK  632  A    between atoms: _1380  and  _1381
REMARK  633  A    between atoms: _1381  and  _1382
REMARK  634  A    between atoms: _1381  and  _1384
REMARK  635  A    between atoms: _1384  and  _1385
REMARK  636  A    between atoms: _1385  and  _1386
REMARK  637  A    between atoms: _1386  and  _1387
REMARK  638  A    between atoms: _1389  and  _1390
REMARK  639  A    between atoms: _1390  and  _1391
REMARK  640  A    between atoms: _1390  and  _1393
REMARK  641  A    between atoms: _1393  and  _1394
REMARK  642  A    between atoms: _1394  and  _1395
REMARK  643  A    between atoms: _1398  and  _1399
REMARK  644  A    between atoms: _1399  and  _1400
REMARK  645  A    between atoms: _1399  and  _1402
REMARK  646  A    between atoms: _1402  and  _1403
REMARK  647  A    between atoms: _1406  and  _1407
REMARK  648  A    between atoms: _1407  and  _1408
REMARK  649  A    between atoms: _1407  and  _1410
REMARK  650  A    between atoms: _1410  and  _1411
REMARK  651  A    between atoms: _1411  and  _1412
REMARK  652  A    between atoms: _1415  and  _1416
REMARK  653  A    between atoms: _1416  and  _1417
REMARK  654  A    between atoms: _1416  and  _1419
REMARK  655  A    between atoms: _1422  and  _1423
REMARK  656  A    between atoms: _1423  and  _1424
REMARK  657  A    between atoms: _1423  and  _1426
REMARK  658  A    between atoms: _1426  and  _1427
REMARK  659  A    between atoms: _1427  and  _1428
REMARK  660  A    between atoms: _1431  and  _1432
REMARK  661  A    between atoms: _1432  and  _1433
REMARK  662  A    between atoms: _1432  and  _1435
REMARK  663  A    between atoms: _1435  and  _1436
REMARK  664  A    between atoms: _1443  and  _1444
REMARK  665  A    between atoms: _1444  and  _1445
REMARK  666  A    between atoms: _1444  and  _1447
REMARK  667  A    between atoms: _1447  and  _1448
REMARK  668  A    between atoms: _1451  and  _1452
REMARK  669  A    between atoms: _1452  and  _1453
REMARK  670  A    between atoms: _1452  and  _1455
REMARK  671  A    between atoms: _1455  and  _1456
REMARK  672  A    between atoms: _1456  and  _1457
REMARK  673  A    between atoms: _1460  and  _1461
REMARK  674  A    between atoms: _1461  and  _1462
REMARK  675  A    between atoms: _1461  and  _1464
REMARK  676  A    between atoms: _1464  and  _1465
REMARK  677  A    between atoms: _1465  and  _1466
REMARK  678  A    between atoms: _1469  and  _1470
REMARK  679  A    between atoms: _1470  and  _1471
REMARK  680  A    between atoms: _1470  and  _1473
REMARK  681  A    between atoms: _1473  and  _1474
REMARK  682  A    between atoms: _1474  and  _1475
REMARK  683  A    between atoms: _1475  and  _1476
REMARK  684  A    between atoms: _1480  and  _1481
REMARK  685  A    between atoms: _1481  and  _1482
REMARK  686  A    between atoms: _1481  and  _1484
REMARK  687  A    between atoms: _1484  and  _1485
REMARK  688  A    between atoms: _1485  and  _1486
REMARK  689  A    between atoms: _1486  and  _1487
REMARK  690  A    between atoms: _1491  and  _1492
REMARK  691  A    between atoms: _1492  and  _1493
REMARK  692  A    between atoms: _1492  and  _1495
REMARK  693  A    between atoms: _1495  and  _1496
REMARK  694  A    between atoms: _1499  and  _1500
REMARK  695  A    between atoms: _1500  and  _1501
REMARK  696  A    between atoms: _1500  and  _1503
REMARK  697  A    between atoms: _1503  and  _1504
REMARK  698  A    between atoms: _1504  and  _1505
REMARK  699  A    between atoms: _1505  and  _1506
REMARK  700  A    between atoms: _1508  and  _1509
REMARK  701  A    between atoms: _1509  and  _1510
REMARK  702  A    between atoms: _1509  and  _1512
REMARK  703  A    between atoms: _1512  and  _1513
REMARK  704  A    between atoms: _1513  and  _1514
REMARK  705  A    between atoms: _1517  and  _1518
REMARK  706  A    between atoms: _1518  and  _1519
REMARK  707  A    between atoms: _1518  and  _1521
REMARK  708  A    between atoms: _1521  and  _1522
REMARK  709  A    between atoms: _1525  and  _1526
REMARK  710  A    between atoms: _1526  and  _1527
REMARK  711  A    between atoms: _1526  and  _1529
REMARK  712  A    between atoms: _1532  and  _1533
REMARK  713  A    between atoms: _1533  and  _1534
REMARK  714  A    between atoms: _1533  and  _1536
REMARK  715  A    between atoms: _1536  and  _1537
REMARK  716  A    between atoms: _1537  and  _1538
REMARK  717  A    between atoms: _1538  and  _1539
REMARK  718  A    between atoms: _1541  and  _1542
REMARK  719  A    between atoms: _1542  and  _1543
REMARK  720  A    between atoms: _1542  and  _1545
REMARK  721  A    between atoms: _1545  and  _1546
REMARK  722  A    between atoms: _1546  and  _1547
REMARK  723  A    between atoms: _1547  and  _1548
REMARK  724  A    between atoms: _1550  and  _1551
REMARK  725  A    between atoms: _1551  and  _1552
REMARK  726  A    between atoms: _1551  and  _1554
REMARK  727  A    between atoms: _1554  and  _1555
REMARK  728  A    between atoms: _1560  and  _1561
REMARK  729  A    between atoms: _1561  and  _1562
REMARK  730  A    between atoms: _1561  and  _1564
REMARK  731  A    between atoms: _1566  and  _1567
REMARK  732  A    between atoms: _1567  and  _1568
REMARK  733  A    between atoms: _1567  and  _1570
REMARK  734  A    between atoms: _1570  and  _1571
REMARK  735  A    between atoms: _1571  and  _1572
REMARK  736  A    between atoms: _1575  and  _1576
REMARK  737  A    between atoms: _1576  and  _1577
REMARK  738  A    between atoms: _1576  and  _1579
REMARK  739  A    between atoms: _1579  and  _1580
REMARK  740  A    between atoms: _1586  and  _1587
REMARK  741  A    between atoms: _1587  and  _1588
REMARK  742  A    between atoms: _1587  and  _1590
REMARK  743  A    between atoms: _1590  and  _1591
REMARK  744  A    between atoms: _1594  and  _1595
REMARK  745  A    between atoms: _1595  and  _1596
REMARK  746  A    between atoms: _1598  and  _1599
REMARK  747  A    between atoms: _1599  and  _1600
REMARK  748  A    between atoms: _1599  and  _1602
REMARK  749  A    between atoms: _1602  and  _1603
REMARK  750  A    between atoms: _1611  and  _1612
REMARK  751  A    between atoms: _1617  and  _1618
REMARK  752  A    between atoms: _1618  and  _1619
REMARK  753  A    between atoms: _1618  and  _1621
REMARK  754  A    between atoms: _1621  and  _1622
REMARK  755  A    between atoms: _1625  and  _1626
REMARK  756  A    between atoms: _1626  and  _1627
REMARK  757  A    between atoms: _1626  and  _1629
REMARK  758  A    between atoms: _1632  and  _1633
REMARK  759  A    between atoms: _1633  and  _1634
REMARK  760  A    between atoms: _1633  and  _1636
REMARK  761  A    between atoms: _1636  and  _1637
REMARK  762  A    between atoms: _1640  and  _1641
REMARK  763  A    between atoms: _1641  and  _1642
REMARK  764  A    between atoms: _1641  and  _1644
REMARK  765  A    between atoms: _1644  and  _1645
REMARK  766  A    between atoms: _1651  and  _1652
REMARK  767  A    between atoms: _1652  and  _1653
REMARK  768  A    between atoms: _1652  and  _1655
REMARK  769  A    between atoms: _1658  and  _1659
REMARK  770  A    between atoms: _1659  and  _1660
REMARK  771  A    between atoms: _1659  and  _1662
REMARK  772  A    between atoms: _1662  and  _1663
REMARK  773  A    between atoms: _1663  and  _1664
REMARK  774  A    between atoms: _1667  and  _1668
REMARK  775  A    between atoms: _1668  and  _1669
REMARK  776  A    between atoms: _1668  and  _1671
REMARK  777  A    between atoms: _1671  and  _1672
REMARK  778  A    between atoms: _1672  and  _1673
REMARK  779  A    between atoms: _1673  and  _1674
REMARK                            x       y       z     vdW  Elec       q    Type
REMARK                         _______ _______ _______ _____ _____    ______ ____
ROOT
ATOM      1  C   UNK A  11      14.603  22.931  24.058  0.00  0.00    +0.264 C 
ATOM      2  O   UNK A  11      13.898  22.542  24.990  0.00  0.00    -0.271 OA
ATOM      3  N   UNK A  11      14.125  23.265  22.859  0.00  0.00    -0.196 NA
ENDROOT
BRANCH   3   4
ATOM      4  C   UNK A  11      12.710  23.150  22.513  0.00  0.00    +0.177 C 
BRANCH   4   5
ATOM      5  C   UNK A  11      12.630  22.676  21.073  0.00  0.00    +0.262 C 
ATOM      6  N   UNK A  11      11.471  22.154  20.675  0.00  0.00    -0.194 NA
ATOM      7  O   UNK A  11      13.610  22.799  20.329  0.00  0.00    -0.271 OA
BRANCH   6   8
ATOM      8  C   UNK A  11      11.302  21.711  19.298  0.00  0.00    +0.203 C 
BRANCH   8   9
ATOM      9  C   UNK A  11      10.977  20.202  19.223  0.00  0.00    +0.181 C 
ATOM     10  O   UNK A  11       9.761  19.969  19.930  0.00  0.00    -0.221 OA
ATOM     11  C   UNK A  11      12.114  19.311  19.762  0.00  0.00    +0.038 C 
ENDBRANCH   8   9
BRANCH   8  12
ATOM     12  C   UNK A  11      10.138  22.475  18.681  0.00  0.00    +0.264 C 
ATOM     13  O   UNK A  11       9.224  22.910  19.392  0.00  0.00    -0.271 OA
ATOM     14  N   UNK A  11      10.149  22.578  17.365  0.00  0.00    -0.196 NA
BRANCH  14  15
ATOM     15  C   UNK A  11       9.047  23.163  16.606  0.00  0.00    +0.173 C 
BRANCH  15  16
ATOM     16  C   UNK A  11       9.305  24.637  16.166  0.00  0.00    +0.029 C 
ATOM     17  C   UNK A  11       9.501  25.561  17.372  0.00  0.00    +0.002 C 
ATOM     18  C   UNK A  11       8.183  25.165  15.252  0.00  0.00    +0.002 C 
ENDBRANCH  15  16
BRANCH  15  19
ATOM     19  C   UNK A  11       8.813  22.231  15.408  0.00  0.00    +0.262 C 
ATOM     20  N   UNK A  11       7.557  21.886  15.167  0.00  0.00    -0.196 NA
ATOM     21  O   UNK A  11       9.769  21.844  14.716  0.00  0.00    -0.271 OA
BRANCH  20  22
ATOM     22  C   UNK A  11       7.166  21.088  14.004  0.00  0.00    +0.173 C 
BRANCH  22  23
ATOM     23  C   UNK A  11       5.817  21.572  13.496  0.00  0.00    +0.262 C 
ATOM     24  O   UNK A  11       5.042  22.160  14.264  0.00  0.00    -0.271 OA
ATOM     25  N   UNK A  11       5.513  21.285  12.217  0.00  0.00    -0.194 NA
BRANCH  25  26
ATOM     26  C   UNK A  11       4.183  21.552  11.674  0.00  0.00    +0.203 C 
BRANCH  26  27
ATOM     27  C   UNK A  11       4.192  21.437  10.128  0.00  0.00    +0.181 C 
ATOM     28  O   UNK A  11       5.133  22.382   9.611  0.00  0.00    -0.221 OA
ATOM     29  C   UNK A  11       2.825  21.725   9.514  0.00  0.00    +0.038 C 
ENDBRANCH  26  27
BRANCH  26  30
ATOM     30  C   UNK A  11       3.280  20.524  12.367  0.00  0.00    +0.264 C 
ATOM     31  N   UNK A  11       2.098  20.938  12.783  0.00  0.00    -0.196 NA
ATOM     32  O   UNK A  11       3.694  19.374  12.563  0.00  0.00    -0.271 OA
BRANCH  31  33
ATOM     33  C   UNK A  11       1.180  20.069  13.490  0.00  0.00    +0.184 C 
BRANCH  33  34
ATOM     34  C   UNK A  11       0.138  19.501  12.528  0.00  0.00    +0.262 C 
ATOM     35  N   UNK A  11       0.023  18.182  12.496  0.00  0.00    -0.194 NA
ATOM     36  O   UNK A  11      -0.538  20.248  11.856  0.00  0.00    -0.271 OA
BRANCH  35  37
ATOM     37  C   UNK A  11      -0.926  17.501  11.614  0.00  0.00    +0.203 C 
BRANCH  37  38
ATOM     38  C   UNK A  11      -0.249  16.336  10.865  0.00  0.00    +0.181 C 
ATOM     39  O   UNK A  11       0.555  15.577  11.780  0.00  0.00    -0.221 OA
ATOM     40  C   UNK A  11       0.645  16.893   9.771  0.00  0.00    +0.038 C 
ENDBRANCH  37  38
BRANCH  37  41
ATOM     41  C   UNK A  11      -2.194  17.045  12.325  0.00  0.00    +0.264 C 
ATOM     42  N   UNK A  11      -2.315  17.459  13.575  0.00  0.00    -0.194 NA
ATOM     43  O   UNK A  11      -3.066  16.427  11.737  0.00  0.00    -0.271 OA
BRANCH  42  44
ATOM     44  C   UNK A  11      -3.441  17.123  14.425  0.00  0.00    +0.201 C 
BRANCH  44  45
ATOM     45  C   UNK A  11      -4.695  17.931  14.153  0.00  0.00    +0.264 C 
ATOM     46  N   UNK A  11      -5.643  17.868  15.069  0.00  0.00    -0.196 NA
ATOM     47  O   UNK A  11      -4.830  18.584  13.140  0.00  0.00    -0.271 OA
BRANCH  46  48
ATOM     48  C   UNK A  11      -6.911  18.538  14.873  0.00  0.00    +0.172 C 
BRANCH  48  49
ATOM     49  C   UNK A  11      -6.702  20.032  14.596  0.00  0.00    +0.246 C 
ATOM     50  O   UNK A  11      -5.983  20.690  15.313  0.00  0.00    -0.273 OA
ATOM     51  N   UNK A  11      -7.349  20.557  13.559  0.00  0.00    -0.272 N 
ATOM     52  C   UNK A  11      -7.213  21.981  13.270  0.00  0.00    +0.154 C 
ATOM     53  C   UNK A  11      -7.931  22.141  11.933  0.00  0.00    +0.031 C 
ATOM     54  C   UNK A  11      -8.807  20.955  11.822  0.00  0.00    +0.024 C 
ATOM     55  C   UNK A  11      -8.080  19.851  12.502  0.00  0.00    +0.094 C 
BRANCH  52  56
ATOM     56  C   UNK A  11      -7.873  22.845  14.328  0.00  0.00    +0.259 C 
ATOM     57  O   UNK A  11      -8.939  22.562  14.818  0.00  0.00    -0.272 OA
ATOM     58  N   UNK A  11      -7.225  23.929  14.664  0.00  0.00    -0.204 NA
BRANCH  58  59
ATOM     59  C   UNK A  11      -7.819  24.783  15.689  0.00  0.00    +0.115 C 
ATOM     60  C   UNK A  11      -7.096  24.905  16.956  0.00  0.00    +0.025 C 
ENDBRANCH  58  59
ENDBRANCH  52  56
ENDBRANCH  48  49
BRANCH  48  61
ATOM     61  C   UNK A  11      -7.747  18.355  16.146  0.00  0.00    +0.043 C 
BRANCH  61  62
ATOM     62  C   UNK A  11      -9.154  18.937  16.125  0.00  0.00    +0.116 C 
BRANCH  62  63
ATOM     63  C   UNK A  11      -9.754  19.174  17.518  0.00  0.00    +0.365 C 
ATOM     64  O   UNK A  11      -9.011  19.201  18.523  0.00  0.00    -0.246 OA
ATOM     65  O   UNK A  11     -10.980  19.360  17.615  0.00  0.00    -0.246 OA
ENDBRANCH  62  63
ENDBRANCH  61  62
ENDBRANCH  48  61
ENDBRANCH  46  48
ENDBRANCH  44  45
ENDBRANCH  42  44
ENDBRANCH  37  41
ENDBRANCH  35  37
ENDBRANCH  33  34
BRANCH  33  66
ATOM     66  C   UNK A  11       0.484  20.852  14.601  0.00  0.00    +0.145 C 
BRANCH  66  67
ATOM     67  C   UNK A  11      -0.436  19.997  15.460  0.00  0.00    +0.367 C 
ATOM     68  O   UNK A  11       0.013  19.057  16.104  0.00  0.00    -0.246 OA
ATOM     69  O   UNK A  11      -1.611  20.307  15.548  0.00  0.00    -0.246 OA
ENDBRANCH  66  67
ENDBRANCH  33  66
ENDBRANCH  31  33
ENDBRANCH  26  30
ENDBRANCH  25  26
ENDBRANCH  22  23
BRANCH  22  70
ATOM     70  C   UNK A  11       7.097  19.588  14.350  0.00  0.00    +0.035 C 
BRANCH  70  71
ATOM     71  C   UNK A  11       5.924  19.162  15.253  0.00  0.00    +0.049 C 
BRANCH  71  72
ATOM     72  C   UNK A  11       6.130  17.785  15.870  0.00  0.00    +0.220 C 
BRANCH  72  73
ATOM     73  N   UNK A  11       7.017  17.849  17.039  0.00  0.00    -0.087 NA
ATOM     74  C   UNK A  11       7.420  16.799  17.754  0.00  0.00    +0.535 C 
ATOM     75  N   UNK A  11       8.222  16.967  18.797  0.00  0.00    +0.135 NA
ATOM     76  N   UNK A  11       7.024  15.573  17.429  0.00  0.00    +0.135 NA
ENDBRANCH  72  73
ENDBRANCH  71  72
ENDBRANCH  70  71
ENDBRANCH  22  70
ENDBRANCH  20  22
ENDBRANCH  15  19
ENDBRANCH  14  15
ENDBRANCH   8  12
ENDBRANCH   6   8
ENDBRANCH   4   5
BRANCH   4  77
ATOM     77  C   UNK A  11      11.953  24.479  22.718  0.00  0.00    +0.057 C 
BRANCH  77  78
ATOM     78  C   UNK A  11      12.385  25.615  21.815  0.00  0.00    -0.020 A 
ATOM     79  C   UNK A  11      13.393  26.492  22.206  0.00  0.00    -0.004 A 
ATOM     80  C   UNK A  11      13.785  27.554  21.378  0.00  0.00    -0.000 A 
ATOM     81  C   UNK A  11      13.135  27.775  20.179  0.00  0.00    -0.000 A 
ATOM     82  C   UNK A  11      12.112  26.926  19.786  0.00  0.00    -0.000 A 
ATOM     83  C   UNK A  11      11.736  25.853  20.607  0.00  0.00    -0.004 A 
ENDBRANCH  77  78
ENDBRANCH   4  77
ENDBRANCH   3   4
BRANCH   1  84
ATOM     84  C   UNK A  11      16.108  22.996  24.214  0.00  0.00    +0.205 C 
BRANCH  84  86
ATOM     85  C   GLY A  10      17.582  23.896  25.935  0.00  0.00    +0.264 C 
ATOM     86  N   UNK A  11      16.544  23.085  25.604  0.00  0.00    -0.194 NA
ATOM     87  O   GLY A  10      18.143  24.627  25.115  0.00  0.00    -0.271 OA
BRANCH  85  88
ATOM     88  CA  GLY A  10      18.032  23.921  27.382  0.00  0.00    +0.201 C 
BRANCH  88  90
ATOM     89  C   GLY A   9      17.807  21.804  28.657  0.00  0.00    +0.264 C 
ATOM     90  N   GLY A  10      17.363  23.025  28.326  0.00  0.00    -0.194 NA
ATOM     91  O   GLY A   9      18.785  21.273  28.121  0.00  0.00    -0.271 OA
BRANCH  89  92
ATOM     92  CA  GLY A   9      17.044  21.068  29.758  0.00  0.00    +0.201 C 
BRANCH  92  94
ATOM     93  C   ALA A   8      14.737  21.578  29.280  0.00  0.00    +0.262 C 
ATOM     94  N   GLY A   9      15.771  21.698  30.102  0.00  0.00    -0.194 NA
ATOM     95  O   ALA A   8      14.808  20.943  28.237  0.00  0.00    -0.271 OA
BRANCH  93  96
ATOM     96  CA  ALA A   8      13.416  22.305  29.614  0.00  0.00    +0.173 C 
ATOM     97  CB  ALA A   8      13.280  22.603  31.107  0.00  0.00    +0.033 C 
BRANCH  96 100
ATOM     98  C   SER A   7      11.965  20.250  29.536  0.00  0.00    +0.264 C 
ATOM     99  O   SER A   7      12.565  19.656  30.439  0.00  0.00    -0.271 OA
ATOM    100  N   ALA A   8      12.294  21.500  29.121  0.00  0.00    -0.196 NA
BRANCH  98 101
ATOM    101  CA  SER A   7      10.772  19.579  28.832  0.00  0.00    +0.205 C 
BRANCH 101 104
ATOM    102  C   SER A   6       9.717  21.039  27.126  0.00  0.00    +0.264 C 
ATOM    103  O   SER A   6       8.732  21.324  27.824  0.00  0.00    -0.271 OA
ATOM    104  N   SER A   7      10.685  20.193  27.507  0.00  0.00    -0.194 NA
BRANCH 102 105
ATOM    105  CA  SER A   6       9.911  21.676  25.772  0.00  0.00    +0.205 C 
BRANCH 105 107
ATOM    106  C   GLU A   5       8.725  21.751  23.633  0.00  0.00    +0.262 C 
ATOM    107  N   SER A   6       8.677  21.693  24.963  0.00  0.00    -0.194 NA
ATOM    108  O   GLU A   5       9.778  21.792  22.973  0.00  0.00    -0.271 OA
BRANCH 106 109
ATOM    109  CA  GLU A   5       7.398  21.667  22.930  0.00  0.00    +0.173 C 
BRANCH 109 112
ATOM    110  C   TRP A   4       6.195  22.968  21.306  0.00  0.00    +0.262 C 
ATOM    111  O   TRP A   4       5.133  22.729  21.903  0.00  0.00    -0.271 OA
ATOM    112  N   GLU A   5       7.375  22.515  21.749  0.00  0.00    -0.196 NA
BRANCH 110 113
ATOM    113  CA  TRP A   4       6.191  23.866  20.075  0.00  0.00    +0.177 C 
BRANCH 113 115
ATOM    114  C   ALA A   3       4.922  22.753  18.242  0.00  0.00    +0.262 C 
ATOM    115  N   TRP A   4       4.977  23.472  19.355  0.00  0.00    -0.196 NA
ATOM    116  O   ALA A   3       5.913  22.455  17.560  0.00  0.00    -0.271 OA
BRANCH 114 117
ATOM    117  CA  ALA A   3       3.520  22.394  17.757  0.00  0.00    +0.173 C 
ATOM    118  CB  ALA A   3       3.365  20.872  17.710  0.00  0.00    +0.033 C 
BRANCH 117 121
ATOM    119  C   TYR A   2       2.463  23.858  16.069  0.00  0.00    +0.262 C 
ATOM    120  O   TYR A   2       1.562  24.217  16.821  0.00  0.00    -0.271 OA
ATOM    121  N   ALA A   3       3.419  22.973  16.427  0.00  0.00    -0.196 NA
BRANCH 119 122
ATOM    122  CA  TYR A   2       2.586  24.461  14.676  0.00  0.00    +0.177 C 
BRANCH 122 124
ATOM    123  C   GLN A   1       0.796  24.537  13.000  0.00  0.00    +0.259 C 
ATOM    124  N   TYR A   2       1.333  25.008  14.138  0.00  0.00    -0.196 NA
ATOM    125  O   GLN A   1       1.313  23.627  12.329  0.00  0.00    -0.272 OA
BRANCH 123 127
ATOM    126  N   GLN A   1      -0.288  25.554  11.123  0.00  0.00    -0.123 NA
ATOM    127  CA  GLN A   1      -0.498  25.187  12.524  0.00  0.00    +0.170 C 
BRANCH 127 128
ATOM    128  CB  GLN A   1      -1.660  24.220  12.676  0.00  0.00    +0.038 C 
BRANCH 128 129
ATOM    129  CG  GLN A   1      -2.005  23.938  14.129  0.00  0.00    +0.091 C 
BRANCH 129 130
ATOM    130  CD  GLN A   1      -3.399  23.373  14.228  0.00  0.00    +0.261 C 
ATOM    131  NE2 GLN A   1      -3.522  22.201  14.810  0.00  0.00    -0.088 NA
ATOM    132  OE1 GLN A   1      -4.373  23.977  13.774  0.00  0.00    -0.272 OA
ENDBRANCH 129 130
ENDBRANCH 128 129
ENDBRANCH 127 128
ENDBRANCH 123 127
ENDBRANCH 122 124
BRANCH 122 133
ATOM    133  CB  TYR A   2       3.681  25.524  14.696  0.00  0.00    +0.057 C 
BRANCH 133 134
ATOM    134  CG  TYR A   2       4.021  26.083  13.335  0.00  0.00    -0.020 A 
ATOM    135  CD2 TYR A   2       3.529  27.320  12.926  0.00  0.00    -0.001 A 
ATOM    136  CE2 TYR A   2       3.842  27.843  11.672  0.00  0.00    +0.042 A 
ATOM    137  CZ  TYR A   2       4.642  27.117  10.807  0.00  0.00    +0.196 A 
ATOM    138  CE1 TYR A   2       5.178  25.903  11.207  0.00  0.00    +0.042 A 
ATOM    139  OH  TYR A   2       4.979  27.648   9.587  0.00  0.00    -0.287 OA
ATOM    140  CD1 TYR A   2       4.864  25.391  12.465  0.00  0.00    -0.001 A 
ENDBRANCH 133 134
ENDBRANCH 122 133
ENDBRANCH 119 122
ENDBRANCH 117 121
ENDBRANCH 114 117
ENDBRANCH 113 115
BRANCH 113 141
ATOM    141  CB  TRP A   4       6.080  25.337  20.503  0.00  0.00    +0.059 C 
BRANCH 141 142
ATOM    142  CG  TRP A   4       7.208  25.858  21.348  0.00  0.00    +0.001 A 
ATOM    143  CD2 TRP A   4       7.353  25.725  22.773  0.00  0.00    +0.015 A 
ATOM    144  CE3 TRP A   4       6.620  25.059  23.774  0.00  0.00    +0.001 A 
ATOM    145  CZ3 TRP A   4       7.066  25.120  25.091  0.00  0.00    +0.000 A 
ATOM    146  CH2 TRP A   4       8.213  25.852  25.434  0.00  0.00    +0.002 A 
ATOM    147  CZ2 TRP A   4       8.959  26.513  24.471  0.00  0.00    +0.019 A 
ATOM    148  CE2 TRP A   4       8.511  26.445  23.145  0.00  0.00    +0.081 A 
ATOM    149  NE1 TRP A   4       9.027  27.001  22.001  0.00  0.00    -0.244 NA
ATOM    150  CD1 TRP A   4       8.239  26.647  20.932  0.00  0.00    +0.095 A 
ENDBRANCH 141 142
ENDBRANCH 113 141
ENDBRANCH 110 113
ENDBRANCH 109 112
BRANCH 109 151
ATOM    151  CB  GLU A   5       7.125  20.206  22.543  0.00  0.00    +0.043 C 
BRANCH 151 152
ATOM    152  CG  GLU A   5       7.009  19.257  23.722  0.00  0.00    +0.116 C 
BRANCH 152 153
ATOM    153  CD  GLU A   5       6.491  17.903  23.282  0.00  0.00    +0.365 C 
ATOM    154  OE2 GLU A   5       5.262  17.681  23.364  0.00  0.00    -0.246 OA
ATOM    155  OE1 GLU A   5       7.304  17.089  22.791  0.00  0.00    -0.246 OA
ENDBRANCH 152 153
ENDBRANCH 151 152
ENDBRANCH 109 151
ENDBRANCH 106 109
ENDBRANCH 105 107
BRANCH 105 156
ATOM    156  CB  SER A   6      10.505  23.081  25.927  0.00  0.00    +0.213 C 
ATOM    157  OG  SER A   6      11.757  23.032  26.604  0.00  0.00    -0.218 OA
ENDBRANCH 105 156
ENDBRANCH 102 105
ENDBRANCH 101 104
BRANCH 101 158
ATOM    158  CB  SER A   7      11.008  18.071  28.723  0.00  0.00    +0.213 C 
ATOM    159  OG  SER A   7       9.888  17.394  28.180  0.00  0.00    -0.218 OA
ENDBRANCH 101 158
ENDBRANCH  98 101
ENDBRANCH  96 100
ENDBRANCH  93  96
ENDBRANCH  92  94
ENDBRANCH  89  92
ENDBRANCH  88  90
ENDBRANCH  85  88
ENDBRANCH  84  86
BRANCH  84 160
ATOM    160  C   UNK A  11      16.749  21.777  23.532  0.00  0.00    +0.213 C 
ATOM    161  O   UNK A  11      16.225  20.573  24.066  0.00  0.00    -0.218 OA
ENDBRANCH  84 160
ENDBRANCH   1  84
TORSDOF 69
REMARK  Name = /Users/mlugowska/PhD/ML_residence_time_prediction/protein_files/5NYH_protein.pdb
REMARK  779 active torsions:
REMARK  status: ('A' for Active; 'I' for Inactive)
REMARK    1  A    between atoms: _2  and  _3
REMARK    2  A    between atoms: _2  and  _5
REMARK    3  A    between atoms: _5  and  _6
REMARK    4  A    between atoms: _6  and  _7
REMARK    5  A    between atoms: _10  and  _11
REMARK    6  A    between atoms: _11  and  _12
REMARK    7  A    between atoms: _11  and  _14
REMARK    8  A    between atoms: _17  and  _18
REMARK    9  A    between atoms: _18  and  _19
REMARK   10  A    between atoms: _18  and  _21
REMARK   11  A    between atoms: _21  and  _22
REMARK   12  A    between atoms: _22  and  _23
REMARK   13  A    between atoms: _26  and  _27
REMARK   14  A    between atoms: _27  and  _28
REMARK   15  A    between atoms: _27  and  _30
REMARK   16  A    between atoms: _33  and  _34
REMARK   17  A    between atoms: _34  and  _35
REMARK   18  A    between atoms: _34  and  _37
REMARK   19  A    between atoms: _37  and  _38
REMARK   20  A    between atoms: _44  and  _45
REMARK   21  A    between atoms: _45  and  _46
REMARK   22  A    between atoms: _49  and  _50
REMARK   23  A    between atoms: _50  and  _51
REMARK   24  A    between atoms: _50  and  _53
REMARK   25  A    between atoms: _53  and  _54
REMARK   26  A    between atoms: _60  and  _61
REMARK   27  A    between atoms: _61  and  _62
REMARK   28  A    between atoms: _61  and  _64
REMARK   29  A    between atoms: _64  and  _65
REMARK   30  A    between atoms: _65  and  _66
REMARK   31  A    between atoms: _69  and  _70
REMARK   32  A    between atoms: _70  and  _71
REMARK   33  A    between atoms: _74  and  _75
REMARK   34  A    between atoms: _75  and  _76
REMARK   35  A    between atoms: _75  and  _78
REMARK   36  A    between atoms: _78  and  _79
REMARK   37  A    between atoms: _79  and  _80
REMARK   38  A    between atoms: _83  and  _84
REMARK   39  A    between atoms: _84  and  _85
REMARK   40  A    between atoms: _84  and  _87
REMARK   41  A    between atoms: _87  and  _88
REMARK   42  A    between atoms: _91  and  _92
REMARK   43  A    between atoms: _92  and  _93
REMARK   44  A    between atoms: _96  and  _97
REMARK   45  A    between atoms: _97  and  _98
REMARK   46  A    between atoms: _97  and  _100
REMARK   47  A    between atoms: _100  and  _101
REMARK   48  A    between atoms: _101  and  _102
REMARK   49  A    between atoms: _105  and  _106
REMARK   50  A    between atoms: _106  and  _107
REMARK   51  A    between atoms: _106  and  _109
REMARK   52  A    between atoms: _109  and  _110
REMARK   53  A    between atoms: _113  and  _114
REMARK   54  A    between atoms: _114  and  _115
REMARK   55  A    between atoms: _114  and  _117
REMARK   56  A    between atoms: _117  and  _118
REMARK   57  A    between atoms: _118  and  _119
REMARK   58  A    between atoms: _121  and  _122
REMARK   59  A    between atoms: _122  and  _123
REMARK   60  A    between atoms: _122  and  _125
REMARK   61  A    between atoms: _127  and  _128
REMARK   62  A    between atoms: _128  and  _129
REMARK   63  A    between atoms: _128  and  _131
REMARK   64  A    between atoms: _131  and  _132
REMARK   65  A    between atoms: _135  and  _136
REMARK   66  A    between atoms: _136  and  _137
REMARK   67  A    between atoms: _136  and  _139
REMARK   68  A    between atoms: _139  and  _140
REMARK   69  A    between atoms: _143  and  _144
REMARK   70  A    between atoms: _144  and  _145
REMARK   71  A    between atoms: _144  and  _147
REMARK   72  A    between atoms: _147  and  _148
REMARK   73  A    between atoms: _151  and  _152
REMARK   74  A    between atoms: _152  and  _153
REMARK   75  A    between atoms: _152  and  _155
REMARK   76  A    between atoms: _155  and  _156
REMARK   77  A    between atoms: _159  and  _160
REMARK   78  A    between atoms: _160  and  _161
REMARK   79  A    between atoms: _160  and  _163
REMARK   80  A    between atoms: _166  and  _167
REMARK   81  A    between atoms: _167  and  _168
REMARK   82  A    between atoms: _167  and  _170
REMARK   83  A    between atoms: _170  and  _171
REMARK   84  A    between atoms: _177  and  _178
REMARK   85  A    between atoms: _178  and  _179
REMARK   86  A    between atoms: _178  and  _181
REMARK   87  A    between atoms: _181  and  _182
REMARK   88  A    between atoms: _189  and  _190
REMARK   89  A    between atoms: _190  and  _191
REMARK   90  A    between atoms: _190  and  _193
REMARK   91  A    between atoms: _195  and  _196
REMARK   92  A    between atoms: _196  and  _197
REMARK   93  A    between atoms: _196  and  _199
REMARK   94  A    between atoms: _199  and  _200
REMARK   95  A    between atoms: _203  and  _204
REMARK   96  A    between atoms: _204  and  _205
REMARK   97  A    between atoms: _204  and  _207
REMARK   98  A    between atoms: _207  and  _208
REMARK   99  A    between atoms: _208  and  _209
REMARK  100  A    between atoms: _209  and  _210
REMARK  101  A    between atoms: _212  and  _213
REMARK  102  A    between atoms: _213  and  _214
REMARK  103  A    between atoms: _213  and  _216
REMARK  104  A    between atoms: _216  and  _217
REMARK  105  A    between atoms: _217  and  _218
REMARK  106  A    between atoms: _221  and  _222
REMARK  107  A    between atoms: _222  and  _223
REMARK  108  A    between atoms: _222  and  _225
REMARK  109  A    between atoms: _225  and  _226
REMARK  110  A    between atoms: _229  and  _230
REMARK  111  A    between atoms: _230  and  _231
REMARK  112  A    between atoms: _230  and  _233
REMARK  113  A    between atoms: _233  and  _234
REMARK  114  A    between atoms: _240  and  _241
REMARK  115  A    between atoms: _241  and  _242
REMARK  116  A    between atoms: _241  and  _244
REMARK  117  A    between atoms: _244  and  _245
REMARK  118  A    between atoms: _248  and  _249
REMARK  119  A    between atoms: _249  and  _250
REMARK  120  A    between atoms: _249  and  _252
REMARK  121  A    between atoms: _252  and  _253
REMARK  122  A    between atoms: _253  and  _254
REMARK  123  A    between atoms: _254  and  _255
REMARK  124  A    between atoms: _259  and  _260
REMARK  125  A    between atoms: _260  and  _261
REMARK  126  A    between atoms: _260  and  _263
REMARK  127  A    between atoms: _263  and  _264
REMARK  128  A    between atoms: _264  and  _265
REMARK  129  A    between atoms: _268  and  _269
REMARK  130  A    between atoms: _269  and  _270
REMARK  131  A    between atoms: _269  and  _272
REMARK  132  A    between atoms: _272  and  _273
REMARK  133  A    between atoms: _276  and  _277
REMARK  134  A    between atoms: _277  and  _278
REMARK  135  A    between atoms: _277  and  _280
REMARK  136  A    between atoms: _280  and  _281
REMARK  137  A    between atoms: _284  and  _285
REMARK  138  A    between atoms: _285  and  _286
REMARK  139  A    between atoms: _285  and  _288
REMARK  140  A    between atoms: _290  and  _291
REMARK  141  A    between atoms: _291  and  _292
REMARK  142  A    between atoms: _291  and  _294
REMARK  143  A    between atoms: _294  and  _295
REMARK  144  A    between atoms: _298  and  _299
REMARK  145  A    between atoms: _299  and  _300
REMARK  146  A    between atoms: _299  and  _302
REMARK  147  A    between atoms: _304  and  _305
REMARK  148  A    between atoms: _305  and  _306
REMARK  149  A    between atoms: _305  and  _308
REMARK  150  A    between atoms: _310  and  _311
REMARK  151  A    between atoms: _311  and  _312
REMARK  152  A    between atoms: _311  and  _314
REMARK  153  A    between atoms: _314  and  _315
REMARK  154  A    between atoms: _318  and  _319
REMARK  155  A    between atoms: _319  and  _320
REMARK  156  A    between atoms: _323  and  _324
REMARK  157  A    between atoms: _324  and  _325
REMARK  158  A    between atoms: _324  and  _327
REMARK  159  A    between atoms: _327  and  _328
REMARK  160  A    between atoms: _331  and  _332
REMARK  161  A    between atoms: _332  and  _333
REMARK  162  A    between atoms: _332  and  _335
REMARK  163  A    between atoms: _335  and  _336
REMARK  164  A    between atoms: _339  and  _340
REMARK  165  A    between atoms: _340  and  _341
REMARK  166  A    between atoms: _340  and  _343
REMARK  167  A    between atoms: _343  and  _344
REMARK  168  A    between atoms: _344  and  _345
REMARK  169  A    between atoms: _345  and  _346
REMARK  170  A    between atoms: _348  and  _349
REMARK  171  A    between atoms: _349  and  _350
REMARK  172  A    between atoms: _349  and  _352
REMARK  173  A    between atoms: _352  and  _353
REMARK  174  A    between atoms: _356  and  _357
REMARK  175  A    between atoms: _357  and  _358
REMARK  176  A    between atoms: _357  and  _360
REMARK  177  A    between atoms: _360  and  _361
REMARK  178  A    between atoms: _361  and  _362
REMARK  179  A    between atoms: _362  and  _363
REMARK  180  A    between atoms: _367  and  _368
REMARK  181  A    between atoms: _368  and  _369
REMARK  182  A    between atoms: _368  and  _371
REMARK  183  A    between atoms: _371  and  _372
REMARK  184  A    between atoms: _379  and  _380
REMARK  185  A    between atoms: _380  and  _381
REMARK  186  A    between atoms: _380  and  _383
REMARK  187  A    between atoms: _383  and  _384
REMARK  188  A    between atoms: _384  and  _385
REMARK  189  A    between atoms: _388  and  _389
REMARK  190  A    between atoms: _389  and  _390
REMARK  191  A    between atoms: _389  and  _392
REMARK  192  A    between atoms: _394  and  _395
REMARK  193  A    between atoms: _395  and  _396
REMARK  194  A    between atoms: _395  and  _398
REMARK  195  A    between atoms: _398  and  _399
REMARK  196  A    between atoms: _402  and  _403
REMARK  197  A    between atoms: _403  and  _404
REMARK  198  A    between atoms: _403  and  _406
REMARK  199  A    between atoms: _409  and  _410
REMARK  200  A    between atoms: _410  and  _411
REMARK  201  A    between atoms: _410  and  _413
REMARK  202  A    between atoms: _413  and  _414
REMARK  203  A    between atoms: _418  and  _419
REMARK  204  A    between atoms: _424  and  _425
REMARK  205  A    between atoms: _425  and  _426
REMARK  206  A    between atoms: _425  and  _428
REMARK  207  A    between atoms: _430  and  _431
REMARK  208  A    between atoms: _431  and  _432
REMARK  209  A    between atoms: _431  and  _434
REMARK  210  A    between atoms: _434  and  _435
REMARK  211  A    between atoms: _435  and  _436
REMARK  212  A    between atoms: _436  and  _437
REMARK  213  A    between atoms: _439  and  _440
REMARK  214  A    between atoms: _440  and  _441
REMARK  215  A    between atoms: _440  and  _443
REMARK  216  A    between atoms: _443  and  _444
REMARK  217  A    between atoms: _447  and  _448
REMARK  218  A    between atoms: _448  and  _449
REMARK  219  A    between atoms: _448  and  _451
REMARK  220  A    between atoms: _451  and  _452
REMARK  221  A    between atoms: _455  and  _456
REMARK  222  A    between atoms: _456  and  _457
REMARK  223  A    between atoms: _456  and  _459
REMARK  224  A    between atoms: _461  and  _462
REMARK  225  A    between atoms: _462  and  _463
REMARK  226  A    between atoms: _465  and  _466
REMARK  227  A    between atoms: _466  and  _467
REMARK  228  A    between atoms: _466  and  _469
REMARK  229  A    between atoms: _469  and  _470
REMARK  230  A    between atoms: _470  and  _471
REMARK  231  A    between atoms: _471  and  _472
REMARK  232  A    between atoms: _474  and  _475
REMARK  233  A    between atoms: _475  and  _476
REMARK  234  A    between atoms: _475  and  _478
REMARK  235  A    between atoms: _478  and  _479
REMARK  236  A    between atoms: _479  and  _480
REMARK  237  A    between atoms: _483  and  _484
REMARK  238  A    between atoms: _484  and  _485
REMARK  239  A    between atoms: _484  and  _487
REMARK  240  A    between atoms: _487  and  _488
REMARK  241  A    between atoms: _491  and  _492
REMARK  242  A    between atoms: _492  and  _493
REMARK  243  A    between atoms: _492  and  _495
REMARK  244  A    between atoms: _495  and  _496
REMARK  245  A    between atoms: _501  and  _502
REMARK  246  A    between atoms: _502  and  _503
REMARK  247  A    between atoms: _502  and  _505
REMARK  248  A    between atoms: _505  and  _506
REMARK  249  A    between atoms: _509  and  _510
REMARK  250  A    between atoms: _510  and  _511
REMARK  251  A    between atoms: _510  and  _513
REMARK  252  A    between atoms: _513  and  _514
REMARK  253  A    between atoms: _517  and  _518
REMARK  254  A    between atoms: _518  and  _519
REMARK  255  A    between atoms: _518  and  _521
REMARK  256  A    between atoms: _521  and  _522
REMARK  257  A    between atoms: _525  and  _526
REMARK  258  A    between atoms: _526  and  _527
REMARK  259  A    between atoms: _526  and  _529
REMARK  260  A    between atoms: _529  and  _530
REMARK  261  A    between atoms: _534  and  _535
REMARK  262  A    between atoms: _540  and  _541
REMARK  263  A    between atoms: _541  and  _542
REMARK  264  A    between atoms: _541  and  _544
REMARK  265  A    between atoms: _544  and  _545
REMARK  266  A    between atoms: _548  and  _549
REMARK  267  A    between atoms: _549  and  _552
REMARK  268  A    between atoms: _552  and  _553
REMARK  269  A    between atoms: _553  and  _554
REMARK  270  A    between atoms: _554  and  _555
REMARK  271  A    between atoms: _568  and  _569
REMARK  272  A    between atoms: _576  and  _577
REMARK  273  A    between atoms: _576  and  _579
REMARK  274  A    between atoms: _579  and  _580
REMARK  275  A    between atoms: _583  and  _584
REMARK  276  A    between atoms: _584  and  _585
REMARK  277  A    between atoms: _584  and  _587
REMARK  278  A    between atoms: _587  and  _588
REMARK  279  A    between atoms: _588  and  _589
REMARK  280  A    between atoms: _589  and  _590
REMARK  281  A    between atoms: _594  and  _595
REMARK  282  A    between atoms: _595  and  _596
REMARK  283  A    between atoms: _595  and  _598
REMARK  284  A    between atoms: _601  and  _602
REMARK  285  A    between atoms: _602  and  _603
REMARK  286  A    between atoms: _602  and  _605
REMARK  287  A    between atoms: _605  and  _606
REMARK  288  A    between atoms: _609  and  _610
REMARK  289  A    between atoms: _610  and  _611
REMARK  290  A    between atoms: _610  and  _613
REMARK  291  A    between atoms: _616  and  _617
REMARK  292  A    between atoms: _617  and  _618
REMARK  293  A    between atoms: _617  and  _620
REMARK  294  A    between atoms: _620  and  _621
REMARK  295  A    between atoms: _624  and  _625
REMARK  296  A    between atoms: _625  and  _626
REMARK  297  A    between atoms: _625  and  _628
REMARK  298  A    between atoms: _631  and  _632
REMARK  299  A    between atoms: _632  and  _633
REMARK  300  A    between atoms: _632  and  _635
REMARK  301  A    between atoms: _635  and  _636
REMARK  302  A    between atoms: _639  and  _640
REMARK  303  A    between atoms: _640  and  _641
REMARK  304  A    between atoms: _640  and  _643
REMARK  305  A    between atoms: _646  and  _647
REMARK  306  A    between atoms: _647  and  _648
REMARK  307  A    between atoms: _650  and  _651
REMARK  308  A    between atoms: _651  and  _652
REMARK  309  A    between atoms: _651  and  _654
REMARK  310  A    between atoms: _654  and  _655
REMARK  311  A    between atoms: _658  and  _659
REMARK  312  A    between atoms: _659  and  _660
REMARK  313  A    between atoms: _662  and  _663
REMARK  314  A    between atoms: _663  and  _664
REMARK  315  A    between atoms: _663  and  _666
REMARK  316  A    between atoms: _666  and  _667
REMARK  317  A    between atoms: _667  and  _668
REMARK  318  A    between atoms: _670  and  _671
REMARK  319  A    between atoms: _671  and  _672
REMARK  320  A    between atoms: _671  and  _674
REMARK  321  A    between atoms: _677  and  _678
REMARK  322  A    between atoms: _678  and  _679
REMARK  323  A    between atoms: _678  and  _681
REMARK  324  A    between atoms: _681  and  _682
REMARK  325  A    between atoms: _682  and  _683
REMARK  326  A    between atoms: _683  and  _684
REMARK  327  A    between atoms: _686  and  _687
REMARK  328  A    between atoms: _687  and  _688
REMARK  329  A    between atoms: _691  and  _692
REMARK  330  A    between atoms: _692  and  _693
REMARK  331  A    between atoms: _692  and  _695
REMARK  332  A    between atoms: _695  and  _696
REMARK  333  A    between atoms: _699  and  _700
REMARK  334  A    between atoms: _700  and  _701
REMARK  335  A    between atoms: _700  and  _703
REMARK  336  A    between atoms: _703  and  _704
REMARK  337  A    between atoms: _707  and  _708
REMARK  338  A    between atoms: _708  and  _709
REMARK  339  A    between atoms: _708  and  _711
REMARK  340  A    between atoms: _711  and  _712
REMARK  341  A    between atoms: _715  and  _716
REMARK  342  A    between atoms: _716  and  _717
REMARK  343  A    between atoms: _716  and  _719
REMARK  344  A    between atoms: _719  and  _720
REMARK  345  A    between atoms: _723  and  _724
REMARK  346  A    between atoms: _724  and  _725
REMARK  347  A    between atoms: _724  and  _727
REMARK  348  A    between atoms: _727  and  _728
REMARK  349  A    between atoms: _731  and  _732
REMARK  350  A    between atoms: _732  and  _733
REMARK  351  A    between atoms: _732  and  _735
REMARK  352  A    between atoms: _735  and  _736
REMARK  353  A    between atoms: _739  and  _740
REMARK  354  A    between atoms: _740  and  _741
REMARK  355  A    between atoms: _743  and  _744
REMARK  356  A    between atoms: _744  and  _745
REMARK  357  A    between atoms: _744  and  _747
REMARK  358  A    between atoms: _750  and  _751
REMARK  359  A    between atoms: _751  and  _752
REMARK  360  A    between atoms: _751  and  _754
REMARK  361  A    between atoms: _754  and  _755
REMARK  362  A    between atoms: _758  and  _759
REMARK  363  A    between atoms: _759  and  _760
REMARK  364  A    between atoms: _763  and  _764
REMARK  365  A    between atoms: _764  and  _765
REMARK  366  A    between atoms: _764  and  _767
REMARK  367  A    between atoms: _767  and  _768
REMARK  368  A    between atoms: _768  and  _769
REMARK  369  A    between atoms: _769  and  _770
REMARK  370  A    between atoms: _772  and  _773
REMARK  371  A    between atoms: _773  and  _774
REMARK  372  A    between atoms: _773  and  _776
REMARK  373  A    between atoms: _778  and  _779
REMARK  374  A    between atoms: _779  and  _780
REMARK  375  A    between atoms: _782  and  _783
REMARK  376  A    between atoms: _783  and  _784
REMARK  377  A    between atoms: _783  and  _786
REMARK  378  A    between atoms: _789  and  _790
REMARK  379  A    between atoms: _790  and  _791
REMARK  380  A    between atoms: _790  and  _793
REMARK  381  A    between atoms: _793  and  _794
REMARK  382  A    between atoms: _794  and  _795
REMARK  383  A    between atoms: _795  and  _796
REMARK  384  A    between atoms: _798  and  _799
REMARK  385  A    between atoms: _799  and  _800
REMARK  386  A    between atoms: _803  and  _804
REMARK  387  A    between atoms: _804  and  _805
REMARK  388  A    between atoms: _804  and  _807
REMARK  389  A    between atoms: _807  and  _808
REMARK  390  A    between atoms: _814  and  _815
REMARK  391  A    between atoms: _815  and  _816
REMARK  392  A    between atoms: _815  and  _818
REMARK  393  A    between atoms: _818  and  _819
REMARK  394  A    between atoms: _819  and  _820
REMARK  395  A    between atoms: _822  and  _823
REMARK  396  A    between atoms: _823  and  _824
REMARK  397  A    between atoms: _823  and  _826
REMARK  398  A    between atoms: _826  and  _827
REMARK  399  A    between atoms: _827  and  _828
REMARK  400  A    between atoms: _831  and  _832
REMARK  401  A    between atoms: _832  and  _833
REMARK  402  A    between atoms: _836  and  _837
REMARK  403  A    between atoms: _837  and  _838
REMARK  404  A    between atoms: _837  and  _840
REMARK  405  A    between atoms: _840  and  _841
REMARK  406  A    between atoms: _844  and  _845
REMARK  407  A    between atoms: _845  and  _846
REMARK  408  A    between atoms: _845  and  _848
REMARK  409  A    between atoms: _848  and  _849
REMARK  410  A    between atoms: _849  and  _850
REMARK  411  A    between atoms: _853  and  _854
REMARK  412  A    between atoms: _854  and  _855
REMARK  413  A    between atoms: _858  and  _859
REMARK  414  A    between atoms: _859  and  _860
REMARK  415  A    between atoms: _862  and  _863
REMARK  416  A    between atoms: _863  and  _864
REMARK  417  A    between atoms: _867  and  _868
REMARK  418  A    between atoms: _868  and  _869
REMARK  419  A    between atoms: _868  and  _871
REMARK  420  A    between atoms: _871  and  _872
REMARK  421  A    between atoms: _875  and  _876
REMARK  422  A    between atoms: _876  and  _877
REMARK  423  A    between atoms: _876  and  _879
REMARK  424  A    between atoms: _879  and  _880
REMARK  425  A    between atoms: _883  and  _884
REMARK  426  A    between atoms: _884  and  _887
REMARK  427  A    between atoms: _906  and  _907
REMARK  428  A    between atoms: _906  and  _909
REMARK  429  A    between atoms: _909  and  _910
REMARK  430  A    between atoms: _913  and  _914
REMARK  431  A    between atoms: _914  and  _915
REMARK  432  A    between atoms: _917  and  _918
REMARK  433  A    between atoms: _918  and  _919
REMARK  434  A    between atoms: _918  and  _921
REMARK  435  A    between atoms: _921  and  _922
REMARK  436  A    between atoms: _922  and  _923
REMARK  437  A    between atoms: _926  and  _927
REMARK  438  A    between atoms: _927  and  _928
REMARK  439  A    between atoms: _927  and  _930
REMARK  440  A    between atoms: _930  and  _931
REMARK  441  A    between atoms: _937  and  _938
REMARK  442  A    between atoms: _938  and  _939
REMARK  443  A    between atoms: _941  and  _942
REMARK  444  A    between atoms: _942  and  _943
REMARK  445  A    between atoms: _942  and  _945
REMARK  446  A    between atoms: _948  and  _949
REMARK  447  A    between atoms: _949  and  _950
REMARK  448  A    between atoms: _952  and  _953
REMARK  449  A    between atoms: _953  and  _954
REMARK  450  A    between atoms: _953  and  _956
REMARK  451  A    between atoms: _956  and  _957
REMARK  452  A    between atoms: _963  and  _964
REMARK  453  A    between atoms: _964  and  _965
REMARK  454  A    between atoms: _964  and  _967
REMARK  455  A    between atoms: _967  and  _968
REMARK  456  A    between atoms: _975  and  _976
REMARK  457  A    between atoms: _976  and  _977
REMARK  458  A    between atoms: _976  and  _979
REMARK  459  A    between atoms: _981  and  _982
REMARK  460  A    between atoms: _982  and  _983
REMARK  461  A    between atoms: _986  and  _987
REMARK  462  A    between atoms: _987  and  _988
REMARK  463  A    between atoms: _987  and  _990
REMARK  464  A    between atoms: _990  and  _991
REMARK  465  A    between atoms: _998  and  _999
REMARK  466  A    between atoms: _999  and  _1000
REMARK  467  A    between atoms: _999  and  _1002
REMARK  468  A    between atoms: _1002  and  _1003
REMARK  469  A    between atoms: _1006  and  _1007
REMARK  470  A    between atoms: _1007  and  _1008
REMARK  471  A    between atoms: _1007  and  _1010
REMARK  472  A    between atoms: _1013  and  _1014
REMARK  473  A    between atoms: _1014  and  _1015
REMARK  474  A    between atoms: _1018  and  _1019
REMARK  475  A    between atoms: _1019  and  _1020
REMARK  476  A    between atoms: _1019  and  _1022
REMARK  477  A    between atoms: _1023  and  _1024
REMARK  478  A    between atoms: _1027  and  _1028
REMARK  479  A    between atoms: _1028  and  _1029
REMARK  480  A    between atoms: _1028  and  _1031
REMARK  481  A    between atoms: _1031  and  _1032
REMARK  482  A    between atoms: _1032  and  _1033
REMARK  483  A    between atoms: _1033  and  _1034
REMARK  484  A    between atoms: _1036  and  _1037
REMARK  485  A    between atoms: _1037  and  _1038
REMARK  486  A    between atoms: _1037  and  _1040
REMARK  487  A    between atoms: _1043  and  _1044
REMARK  488  A    between atoms: _1044  and  _1045
REMARK  489  A    between atoms: _1044  and  _1047
REMARK  490  A    between atoms: _1050  and  _1051
REMARK  491  A    between atoms: _1051  and  _1052
REMARK  492  A    between atoms: _1051  and  _1054
REMARK  493  A    between atoms: _1057  and  _1058
REMARK  494  A    between atoms: _1058  and  _1059
REMARK  495  A    between atoms: _1058  and  _1061
REMARK  496  A    between atoms: _1061  and  _1062
REMARK  497  A    between atoms: _1065  and  _1066
REMARK  498  A    between atoms: _1066  and  _1067
REMARK  499  A    between atoms: _1066  and  _1069
REMARK  500  A    between atoms: _1072  and  _1073
REMARK  501  A    between atoms: _1073  and  _1074
REMARK  502  A    between atoms: _1073  and  _1076
REMARK  503  A    between atoms: _1076  and  _1077
REMARK  504  A    between atoms: _1077  and  _1078
REMARK  505  A    between atoms: _1078  and  _1079
REMARK  506  A    between atoms: _1081  and  _1082
REMARK  507  A    between atoms: _1082  and  _1083
REMARK  508  A    between atoms: _1082  and  _1085
REMARK  509  A    between atoms: _1085  and  _1086
REMARK  510  A    between atoms: _1091  and  _1092
REMARK  511  A    between atoms: _1092  and  _1093
REMARK  512  A    between atoms: _1092  and  _1095
REMARK  513  A    between atoms: _1095  and  _1096
REMARK  514  A    between atoms: _1099  and  _1100
REMARK  515  A    between atoms: _1100  and  _1101
REMARK  516  A    between atoms: _1100  and  _1103
REMARK  517  A    between atoms: _1103  and  _1104
REMARK  518  A    between atoms: _1107  and  _1108
REMARK  519  A    between atoms: _1108  and  _1111
REMARK  520  A    between atoms: _1111  and  _1112
REMARK  521  A    between atoms: _1125  and  _1127
REMARK  522  A    between atoms: _1134  and  _1135
REMARK  523  A    between atoms: _1134  and  _1137
REMARK  524  A    between atoms: _1137  and  _1138
REMARK  525  A    between atoms: _1138  and  _1139
REMARK  526  A    between atoms: _1142  and  _1143
REMARK  527  A    between atoms: _1143  and  _1144
REMARK  528  A    between atoms: _1143  and  _1146
REMARK  529  A    between atoms: _1146  and  _1147
REMARK  530  A    between atoms: _1154  and  _1155
REMARK  531  A    between atoms: _1155  and  _1156
REMARK  532  A    between atoms: _1159  and  _1160
REMARK  533  A    between atoms: _1160  and  _1161
REMARK  534  A    between atoms: _1160  and  _1163
REMARK  535  A    between atoms: _1163  and  _1164
REMARK  536  A    between atoms: _1173  and  _1174
REMARK  537  A    between atoms: _1174  and  _1175
REMARK  538  A    between atoms: _1174  and  _1177
REMARK  539  A    between atoms: _1177  and  _1178
REMARK  540  A    between atoms: _1178  and  _1179
REMARK  541  A    between atoms: _1182  and  _1183
REMARK  542  A    between atoms: _1183  and  _1184
REMARK  543  A    between atoms: _1183  and  _1186
REMARK  544  A    between atoms: _1188  and  _1189
REMARK  545  A    between atoms: _1189  and  _1190
REMARK  546  A    between atoms: _1189  and  _1192
REMARK  547  A    between atoms: _1194  and  _1195
REMARK  548  A    between atoms: _1195  and  _1196
REMARK  549  A    between atoms: _1199  and  _1200
REMARK  550  A    between atoms: _1200  and  _1201
REMARK  551  A    between atoms: _1203  and  _1204
REMARK  552  A    between atoms: _1204  and  _1205
REMARK  553  A    between atoms: _1207  and  _1208
REMARK  554  A    between atoms: _1208  and  _1209
REMARK  555  A    between atoms: _1208  and  _1211
REMARK  556  A    between atoms: _1213  and  _1214
REMARK  557  A    between atoms: _1214  and  _1215
REMARK  558  A    between atoms: _1214  and  _1217
REMARK  559  A    between atoms: _1217  and  _1218
REMARK  560  A    between atoms: _1224  and  _1225
REMARK  561  A    between atoms: _1225  and  _1226
REMARK  562  A    between atoms: _1225  and  _1228
REMARK  563  A    between atoms: _1231  and  _1232
REMARK  564  A    between atoms: _1232  and  _1233
REMARK  565  A    between atoms: _1232  and  _1235
REMARK  566  A    between atoms: _1238  and  _1239
REMARK  567  A    between atoms: _1239  and  _1240
REMARK  568  A    between atoms: _1239  and  _1242
REMARK  569  A    between atoms: _1242  and  _1243
REMARK  570  A    between atoms: _1243  and  _1244
REMARK  571  A    between atoms: _1244  and  _1245
REMARK  572  A    between atoms: _1249  and  _1250
REMARK  573  A    between atoms: _1250  and  _1251
REMARK  574  A    between atoms: _1250  and  _1253
REMARK  575  A    between atoms: _1256  and  _1257
REMARK  576  A    between atoms: _1257  and  _1258
REMARK  577  A    between atoms: _1257  and  _1260
REMARK  578  A    between atoms: _1260  and  _1261
REMARK  579  A    between atoms: _1264  and  _1265
REMARK  580  A    between atoms: _1265  and  _1266
REMARK  581  A    between atoms: _1265  and  _1268
REMARK  582  A    between atoms: _1271  and  _1272
REMARK  583  A    between atoms: _1272  and  _1273
REMARK  584  A    between atoms: _1275  and  _1276
REMARK  585  A    between atoms: _1276  and  _1277
REMARK  586  A    between atoms: _1276  and  _1279
REMARK  587  A    between atoms: _1279  and  _1280
REMARK  588  A    between atoms: _1280  and  _1281
REMARK  589  A    between atoms: _1285  and  _1286
REMARK  590  A    between atoms: _1291  and  _1293
REMARK  591  A    between atoms: _1298  and  _1299
REMARK  592  A    between atoms: _1299  and  _1301
REMARK  593  A    between atoms: _1300  and  _1301
REMARK  594  A    between atoms: _1304  and  _1305
REMARK  595  A    between atoms: _1305  and  _1306
REMARK  596  A    between atoms: _1308  and  _1309
REMARK  597  A    between atoms: _1309  and  _1310
REMARK  598  A    between atoms: _1309  and  _1312
REMARK  599  A    between atoms: _1312  and  _1313
REMARK  600  A    between atoms: _1313  and  _1314
REMARK  601  A    between atoms: _1314  and  _1315
REMARK  602  A    between atoms: _1319  and  _1320
REMARK  603  A    between atoms: _1320  and  _1321
REMARK  604  A    between atoms: _1323  and  _1324
REMARK  605  A    between atoms: _1324  and  _1325
REMARK  606  A    between atoms: _1324  and  _1327
REMARK  607  A    between atoms: _1330  and  _1331
REMARK  608  A    between atoms: _1331  and  _1332
REMARK  609  A    between atoms: _1331  and  _1334
REMARK  610  A    between atoms: _1334  and  _1335
REMARK  611  A    between atoms: _1335  and  _1336
REMARK  612  A    between atoms: _1336  and  _1337
REMARK  613  A    between atoms: _1339  and  _1340
REMARK  614  A    between atoms: _1340  and  _1341
REMARK  615  A    between atoms: _1340  and  _1343
REMARK  616  A    between atoms: _1346  and  _1347
REMARK  617  A    between atoms: _1347  and  _1348
REMARK  618  A    between atoms: _1347  and  _1350
REMARK  619  A    between atoms: _1350  and  _1351
REMARK  620  A    between atoms: _1354  and  _1355
REMARK  621  A    between atoms: _1355  and  _1356
REMARK  622  A    between atoms: _1355  and  _1358
REMARK  623  A    between atoms: _1358  and  _1359
REMARK  624  A    between atoms: _1362  and  _1363
REMARK  625  A    between atoms: _1363  and  _1364
REMARK  626  A    between atoms: _1363  and  _1366
REMARK  627  A    between atoms: _1366  and  _1367
REMARK  628  A    between atoms: _1372  and  _1373
REMARK  629  A    between atoms: _1373  and  _1374
REMARK  630  A    between atoms: _1373  and  _1376
REMARK  631  A    between atoms: _1376  and  _1377
REMARK  632  A    between atoms: _1380  and  _1381
REMARK  633  A    between atoms: _1381  and  _1382
REMARK  634  A    between atoms: _1381  and  _1384
REMARK  635  A    between atoms: _1384  and  _1385
REMARK  636  A    between atoms: _1385  and  _1386
REMARK  637  A    between atoms: _1386  and  _1387
REMARK  638  A    between atoms: _1389  and  _1390
REMARK  639  A    between atoms: _1390  and  _1391
REMARK  640  A    between atoms: _1390  and  _1393
REMARK  641  A    between atoms: _1393  and  _1394
REMARK  642  A    between atoms: _1394  and  _1395
REMARK  643  A    between atoms: _1398  and  _1399
REMARK  644  A    between atoms: _1399  and  _1400
REMARK  645  A    between atoms: _1399  and  _1402
REMARK  646  A    between atoms: _1402  and  _1403
REMARK  647  A    between atoms: _1406  and  _1407
REMARK  648  A    between atoms: _1407  and  _1408
REMARK  649  A    between atoms: _1407  and  _1410
REMARK  650  A    between atoms: _1410  and  _1411
REMARK  651  A    between atoms: _1411  and  _1412
REMARK  652  A    between atoms: _1415  and  _1416
REMARK  653  A    between atoms: _1416  and  _1417
REMARK  654  A    between atoms: _1416  and  _1419
REMARK  655  A    between atoms: _1422  and  _1423
REMARK  656  A    between atoms: _1423  and  _1424
REMARK  657  A    between atoms: _1423  and  _1426
REMARK  658  A    between atoms: _1426  and  _1427
REMARK  659  A    between atoms: _1427  and  _1428
REMARK  660  A    between atoms: _1431  and  _1432
REMARK  661  A    between atoms: _1432  and  _1433
REMARK  662  A    between atoms: _1432  and  _1435
REMARK  663  A    between atoms: _1435  and  _1436
REMARK  664  A    between atoms: _1443  and  _1444
REMARK  665  A    between atoms: _1444  and  _1445
REMARK  666  A    between atoms: _1444  and  _1447
REMARK  667  A    between atoms: _1447  and  _1448
REMARK  668  A    between atoms: _1451  and  _1452
REMARK  669  A    between atoms: _1452  and  _1453
REMARK  670  A    between atoms: _1452  and  _1455
REMARK  671  A    between atoms: _1455  and  _1456
REMARK  672  A    between atoms: _1456  and  _1457
REMARK  673  A    between atoms: _1460  and  _1461
REMARK  674  A    between atoms: _1461  and  _1462
REMARK  675  A    between atoms: _1461  and  _1464
REMARK  676  A    between atoms: _1464  and  _1465
REMARK  677  A    between atoms: _1465  and  _1466
REMARK  678  A    between atoms: _1469  and  _1470
REMARK  679  A    between atoms: _1470  and  _1471
REMARK  680  A    between atoms: _1470  and  _1473
REMARK  681  A    between atoms: _1473  and  _1474
REMARK  682  A    between atoms: _1474  and  _1475
REMARK  683  A    between atoms: _1475  and  _1476
REMARK  684  A    between atoms: _1480  and  _1481
REMARK  685  A    between atoms: _1481  and  _1482
REMARK  686  A    between atoms: _1481  and  _1484
REMARK  687  A    between atoms: _1484  and  _1485
REMARK  688  A    between atoms: _1485  and  _1486
REMARK  689  A    between atoms: _1486  and  _1487
REMARK  690  A    between atoms: _1491  and  _1492
REMARK  691  A    between atoms: _1492  and  _1493
REMARK  692  A    between atoms: _1492  and  _1495
REMARK  693  A    between atoms: _1495  and  _1496
REMARK  694  A    between atoms: _1499  and  _1500
REMARK  695  A    between atoms: _1500  and  _1501
REMARK  696  A    between atoms: _1500  and  _1503
REMARK  697  A    between atoms: _1503  and  _1504
REMARK  698  A    between atoms: _1504  and  _1505
REMARK  699  A    between atoms: _1505  and  _1506
REMARK  700  A    between atoms: _1508  and  _1509
REMARK  701  A    between atoms: _1509  and  _1510
REMARK  702  A    between atoms: _1509  and  _1512
REMARK  703  A    between atoms: _1512  and  _1513
REMARK  704  A    between atoms: _1513  and  _1514
REMARK  705  A    between atoms: _1517  and  _1518
REMARK  706  A    between atoms: _1518  and  _1519
REMARK  707  A    between atoms: _1518  and  _1521
REMARK  708  A    between atoms: _1521  and  _1522
REMARK  709  A    between atoms: _1525  and  _1526
REMARK  710  A    between atoms: _1526  and  _1527
REMARK  711  A    between atoms: _1526  and  _1529
REMARK  712  A    between atoms: _1532  and  _1533
REMARK  713  A    between atoms: _1533  and  _1534
REMARK  714  A    between atoms: _1533  and  _1536
REMARK  715  A    between atoms: _1536  and  _1537
REMARK  716  A    between atoms: _1537  and  _1538
REMARK  717  A    between atoms: _1538  and  _1539
REMARK  718  A    between atoms: _1541  and  _1542
REMARK  719  A    between atoms: _1542  and  _1543
REMARK  720  A    between atoms: _1542  and  _1545
REMARK  721  A    between atoms: _1545  and  _1546
REMARK  722  A    between atoms: _1546  and  _1547
REMARK  723  A    between atoms: _1547  and  _1548
REMARK  724  A    between atoms: _1550  and  _1551
REMARK  725  A    between atoms: _1551  and  _1552
REMARK  726  A    between atoms: _1551  and  _1554
REMARK  727  A    between atoms: _1554  and  _1555
REMARK  728  A    between atoms: _1560  and  _1561
REMARK  729  A    between atoms: _1561  and  _1562
REMARK  730  A    between atoms: _1561  and  _1564
REMARK  731  A    between atoms: _1566  and  _1567
REMARK  732  A    between atoms: _1567  and  _1568
REMARK  733  A    between atoms: _1567  and  _1570
REMARK  734  A    between atoms: _1570  and  _1571
REMARK  735  A    between atoms: _1571  and  _1572
REMARK  736  A    between atoms: _1575  and  _1576
REMARK  737  A    between atoms: _1576  and  _1577
REMARK  738  A    between atoms: _1576  and  _1579
REMARK  739  A    between atoms: _1579  and  _1580
REMARK  740  A    between atoms: _1586  and  _1587
REMARK  741  A    between atoms: _1587  and  _1588
REMARK  742  A    between atoms: _1587  and  _1590
REMARK  743  A    between atoms: _1590  and  _1591
REMARK  744  A    between atoms: _1594  and  _1595
REMARK  745  A    between atoms: _1595  and  _1596
REMARK  746  A    between atoms: _1598  and  _1599
REMARK  747  A    between atoms: _1599  and  _1600
REMARK  748  A    between atoms: _1599  and  _1602
REMARK  749  A    between atoms: _1602  and  _1603
REMARK  750  A    between atoms: _1611  and  _1612
REMARK  751  A    between atoms: _1617  and  _1618
REMARK  752  A    between atoms: _1618  and  _1619
REMARK  753  A    between atoms: _1618  and  _1621
REMARK  754  A    between atoms: _1621  and  _1622
REMARK  755  A    between atoms: _1625  and  _1626
REMARK  756  A    between atoms: _1626  and  _1627
REMARK  757  A    between atoms: _1626  and  _1629
REMARK  758  A    between atoms: _1632  and  _1633
REMARK  759  A    between atoms: _1633  and  _1634
REMARK  760  A    between atoms: _1633  and  _1636
REMARK  761  A    between atoms: _1636  and  _1637
REMARK  762  A    between atoms: _1640  and  _1641
REMARK  763  A    between atoms: _1641  and  _1642
REMARK  764  A    between atoms: _1641  and  _1644
REMARK  765  A    between atoms: _1644  and  _1645
REMARK  766  A    between atoms: _1651  and  _1652
REMARK  767  A    between atoms: _1652  and  _1653
REMARK  768  A    between atoms: _1652  and  _1655
REMARK  769  A    between atoms: _1658  and  _1659
REMARK  770  A    between atoms: _1659  and  _1660
REMARK  771  A    between atoms: _1659  and  _1662
REMARK  772  A    between atoms: _1662  and  _1663
REMARK  773  A    between atoms: _1663  and  _1664
REMARK  774  A    between atoms: _1667  and  _1668
REMARK  775  A    between atoms: _1668  and  _1669
REMARK  776  A    between atoms: _1668  and  _1671
REMARK  777  A    between atoms: _1671  and  _1672
REMARK  778  A    between atoms: _1672  and  _1673
REMARK  779  A    between atoms: _1673  and  _1674
REMARK                            x       y       z     vdW  Elec       q    Type
REMARK                         _______ _______ _______ _____ _____    ______ ____
ROOT
ATOM      1  CA  ARG A  21      -8.675  24.563  42.995  0.00  0.00    +0.173 C 
ENDROOT
BRANCH   1   4
ATOM      2  C   ARG A  20     -11.120  24.618  43.189  0.00  0.00    +0.262 C 
ATOM      3  O   ARG A  20     -11.156  25.843  43.342  0.00  0.00    -0.271 OA
ATOM      4  N   ARG A  21      -9.986  23.925  42.981  0.00  0.00    -0.196 NA
BRANCH   2   5
ATOM      5  CA  ARG A  20     -12.417  23.823  43.143  0.00  0.00    +0.173 C 
BRANCH   5   7
ATOM      6  C   GLU A  19     -12.237  23.139  40.768  0.00  0.00    +0.262 C 
ATOM      7  N   ARG A  20     -12.401  22.810  42.082  0.00  0.00    -0.196 NA
ATOM      8  O   GLU A  19     -12.069  24.299  40.384  0.00  0.00    -0.271 OA
BRANCH   6   9
ATOM      9  CA  GLU A  19     -12.251  21.995  39.725  0.00  0.00    +0.173 C 
BRANCH   9  12
ATOM     10  C   GLU A  18     -10.006  21.114  40.371  0.00  0.00    +0.262 C 
ATOM     11  O   GLU A  18      -9.473  22.229  40.416  0.00  0.00    -0.271 OA
ATOM     12  N   GLU A  19     -11.309  20.918  40.055  0.00  0.00    -0.196 NA
BRANCH  10  13
ATOM     13  CA  GLU A  18      -9.193  19.862  40.692  0.00  0.00    +0.173 C 
BRANCH  13  15
ATOM     14  C   LEU A  17      -7.902  19.272  38.663  0.00  0.00    +0.262 C 
ATOM     15  N   GLU A  18      -7.967  19.808  39.889  0.00  0.00    -0.196 NA
ATOM     16  O   LEU A  17      -8.878  18.783  38.084  0.00  0.00    -0.271 OA
BRANCH  14  17
ATOM     17  CA  LEU A  17      -6.534  19.278  37.979  0.00  0.00    +0.173 C 
BRANCH  17  19
ATOM     18  C   TYR A  16      -5.185  21.299  38.547  0.00  0.00    +0.262 C 
ATOM     19  N   LEU A  17      -5.551  20.017  38.789  0.00  0.00    -0.196 NA
ATOM     20  O   TYR A  16      -5.624  21.972  37.610  0.00  0.00    -0.271 OA
BRANCH  18  21
ATOM     21  CA  TYR A  16      -4.240  21.953  39.556  0.00  0.00    +0.177 C 
BRANCH  21  24
ATOM     22  C   GLU A  15      -4.640  20.696  41.648  0.00  0.00    +0.262 C 
ATOM     23  O   GLU A  15      -5.795  21.090  41.737  0.00  0.00    -0.271 OA
ATOM     24  N   TYR A  16      -3.824  21.038  40.623  0.00  0.00    -0.196 NA
BRANCH  22  25
ATOM     25  CA  GLU A  15      -4.075  19.751  42.725  0.00  0.00    +0.173 C 
BRANCH  25  27
ATOM     26  C   THR A  14      -3.324  18.048  41.107  0.00  0.00    +0.264 C 
ATOM     27  N   GLU A  15      -3.038  18.874  42.148  0.00  0.00    -0.196 NA
ATOM     28  O   THR A  14      -4.463  17.954  40.625  0.00  0.00    -0.271 OA
BRANCH  26  29
ATOM     29  CA  THR A  14      -2.184  17.214  40.495  0.00  0.00    +0.203 C 
BRANCH  29  30
ATOM     30  CB  THR A  14      -2.429  15.698  40.672  0.00  0.00    +0.181 C 
ATOM     31  OG1 THR A  14      -2.505  15.399  42.065  0.00  0.00    -0.221 OA
ATOM     32  CG2 THR A  14      -1.366  14.824  39.969  0.00  0.00    +0.038 C 
ENDBRANCH  29  30
BRANCH  29  34
ATOM     33  C   GLN A  13      -0.223  18.747  40.650  0.00  0.00    +0.262 C 
ATOM     34  N   THR A  14      -0.848  17.599  40.981  0.00  0.00    -0.194 NA
ATOM     35  O   GLN A  13      -0.760  19.639  39.982  0.00  0.00    -0.271 OA
BRANCH  33  36
ATOM     36  CA  GLN A  13       1.193  18.967  41.227  0.00  0.00    +0.173 C 
BRANCH  36  39
ATOM     37  C   ASP A  12       2.312  17.468  42.838  0.00  0.00    +0.262 C 
ATOM     38  O   ASP A  12       2.079  18.231  43.782  0.00  0.00    -0.271 OA
ATOM     39  N   GLN A  13       1.892  17.716  41.573  0.00  0.00    -0.196 NA
BRANCH  37  40
ATOM     40  CA  ASP A  12       3.115  16.173  43.085  0.00  0.00    +0.184 C 
BRANCH  40  42
ATOM     41  C   GLU A  11       2.742  14.656  41.194  0.00  0.00    +0.262 C 
ATOM     42  N   ASP A  12       3.518  15.495  41.846  0.00  0.00    -0.196 NA
ATOM     43  O   GLU A  11       1.641  14.367  41.575  0.00  0.00    -0.271 OA
BRANCH  41  44
ATOM     44  CA  GLU A  11       3.311  14.031  39.915  0.00  0.00    +0.173 C 
BRANCH  44  46
ATOM     45  C   LYS A  10       3.676  16.061  38.646  0.00  0.00    +0.262 C 
ATOM     46  N   GLU A  11       4.140  14.916  39.110  0.00  0.00    -0.196 NA
ATOM     47  O   LYS A  10       2.548  16.490  38.940  0.00  0.00    -0.271 OA
BRANCH  45  48
ATOM     48  CA  LYS A  10       4.604  16.889  37.726  0.00  0.00    +0.173 C 
BRANCH  48  50
ATOM     49  C   LEU A   9       2.915  17.201  35.940  0.00  0.00    +0.262 C 
ATOM     50  N   LYS A  10       3.724  17.708  36.889  0.00  0.00    -0.196 NA
ATOM     51  O   LEU A   9       2.882  16.015  35.643  0.00  0.00    -0.271 OA
BRANCH  49  52
ATOM     52  CA  LEU A   9       1.968  18.180  35.265  0.00  0.00    +0.173 C 
BRANCH  52  54
ATOM     53  C   HIS A   8       2.575  17.956  32.901  0.00  0.00    +0.262 C 
ATOM     54  N   LEU A   9       1.649  17.888  33.862  0.00  0.00    -0.196 NA
ATOM     55  O   HIS A   8       3.744  18.254  33.132  0.00  0.00    -0.271 OA
BRANCH  53  56
ATOM     56  CA  HIS A   8       2.073  17.818  31.457  0.00  0.00    +0.179 C 
BRANCH  56  59
ATOM     57  C   LEU A   7       0.802  19.912  31.171  0.00  0.00    +0.262 C 
ATOM     58  O   LEU A   7      -0.215  19.442  31.697  0.00  0.00    -0.271 OA
ATOM     59  N   HIS A   8       1.929  19.204  30.983  0.00  0.00    -0.196 NA
BRANCH  57  60
ATOM     60  CA  LEU A   7       0.814  21.366  30.728  0.00  0.00    +0.173 C 
BRANCH  60  62
ATOM     61  C   ILE A   6       0.260  21.509  28.367  0.00  0.00    +0.262 C 
ATOM     62  N   LEU A   7      -0.127  21.547  29.631  0.00  0.00    -0.196 NA
ATOM     63  O   ILE A   6       1.423  21.345  28.018  0.00  0.00    -0.271 OA
BRANCH  61  64
ATOM     64  CA  ILE A   6      -0.823  21.706  27.313  0.00  0.00    +0.173 C 
BRANCH  64  67
ATOM     65  C   VAL A   5      -1.366  24.043  26.863  0.00  0.00    +0.262 C 
ATOM     66  O   VAL A   5      -2.283  24.062  27.632  0.00  0.00    -0.271 OA
ATOM     67  N   ILE A   6      -0.606  22.985  26.666  0.00  0.00    -0.196 NA
BRANCH  65  68
ATOM     68  CA  VAL A   5      -1.003  25.285  26.042  0.00  0.00    +0.173 C 
BRANCH  68  70
ATOM     69  C   LYS A   4      -2.190  25.390  23.919  0.00  0.00    +0.262 C 
ATOM     70  N   VAL A   5      -2.164  25.603  25.228  0.00  0.00    -0.196 NA
ATOM     71  O   LYS A   4      -1.236  24.950  23.277  0.00  0.00    -0.271 OA
BRANCH  69  72
ATOM     72  CA  LYS A   4      -3.484  25.740  23.174  0.00  0.00    +0.173 C 
BRANCH  72  75
ATOM     73  C   THR A   3      -3.659  27.990  22.122  0.00  0.00    +0.264 C 
ATOM     74  O   THR A   3      -4.566  28.383  22.867  0.00  0.00    -0.271 OA
ATOM     75  N   LYS A   4      -3.108  26.765  22.195  0.00  0.00    -0.196 NA
BRANCH  73  76
ATOM     76  CA  THR A   3      -3.095  28.913  21.050  0.00  0.00    +0.203 C 
BRANCH  76  78
ATOM     77  C   GLY A   2      -4.199  29.823  19.038  0.00  0.00    +0.264 C 
ATOM     78  N   THR A   3      -4.176  29.638  20.355  0.00  0.00    -0.194 NA
ATOM     79  O   GLY A   2      -3.343  29.382  18.265  0.00  0.00    -0.271 OA
BRANCH  77  80
ATOM     80  CA  GLY A   2      -5.362  30.636  18.522  0.00  0.00    +0.201 C 
BRANCH  80  83
ATOM     81  C   ARG A   1      -6.813  30.311  16.629  0.00  0.00    +0.262 C 
ATOM     82  O   ARG A   1      -7.805  30.156  17.356  0.00  0.00    -0.271 OA
ATOM     83  N   GLY A   2      -5.597  30.543  17.088  0.00  0.00    -0.194 NA
BRANCH  81  84
ATOM     84  CA  ARG A   1      -6.969  30.307  15.112  0.00  0.00    +0.173 C 
BRANCH  84  86
ATOM     85  C   UNK A   0      -8.014  28.733  13.482  0.00  0.00    +0.264 C 
ATOM     86  N   ARG A   1      -7.880  29.213  14.743  0.00  0.00    -0.196 NA
ATOM     87  O   UNK A   0      -7.402  29.192  12.522  0.00  0.00    -0.271 OA
BRANCH  85  88
ATOM     88  C   UNK A   0      -8.931  27.544  13.287  0.00  0.00    +0.201 C 
BRANCH  88  92
ATOM     89  C   UNK A   0      -7.915  24.728  15.677  0.00  0.00    +0.096 C 
ATOM     90  C   UNK A   0      -8.457  26.072  15.168  0.00  0.00    +0.242 C 
ATOM     91  O   UNK A   0      -9.027  26.829  15.960  0.00  0.00    -0.273 OA
ATOM     92  N   UNK A   0      -8.363  26.322  13.861  0.00  0.00    -0.195 NA
ENDBRANCH  88  92
ENDBRANCH  85  88
ENDBRANCH  84  86
BRANCH  84  93
ATOM     93  CB  ARG A   1      -7.508  31.691  14.660  0.00  0.00    +0.035 C 
BRANCH  93  94
ATOM     94  CG  ARG A   1      -6.496  32.847  14.842  0.00  0.00    +0.049 C 
BRANCH  94  95
ATOM     95  CD  ARG A   1      -7.147  34.231  14.839  0.00  0.00    +0.220 C 
BRANCH  95  96
ATOM     96  NE  ARG A   1      -8.143  34.375  15.907  0.00  0.00    -0.087 NA
ATOM     97  CZ  ARG A   1      -9.464  34.339  15.729  0.00  0.00    +0.535 C 
ATOM     98  NH2 ARG A   1     -10.281  34.471  16.764  0.00  0.00    +0.135 NA
ATOM     99  NH1 ARG A   1      -9.974  34.171  14.515  0.00  0.00    +0.135 NA
ENDBRANCH  95  96
ENDBRANCH  94  95
ENDBRANCH  93  94
ENDBRANCH  84  93
ENDBRANCH  81  84
ENDBRANCH  80  83
ENDBRANCH  77  80
ENDBRANCH  76  78
BRANCH  76 100
ATOM    100  CB  THR A   3      -2.113  29.947  21.618  0.00  0.00    +0.181 C 
ATOM    101  CG2 THR A   3      -1.039  29.319  22.551  0.00  0.00    +0.038 C 
ATOM    102  OG1 THR A   3      -1.484  30.620  20.526  0.00  0.00    -0.221 OA
ENDBRANCH  76 100
ENDBRANCH  73  76
ENDBRANCH  72  75
BRANCH  72 103
ATOM    103  CB  LYS A   4      -4.039  24.515  22.433  0.00  0.00    +0.031 C 
BRANCH 103 104
ATOM    104  CG  LYS A   4      -4.268  23.265  23.265  0.00  0.00    +0.004 C 
BRANCH 104 105
ATOM    105  CD  LYS A   4      -4.592  22.044  22.389  0.00  0.00    +0.021 C 
BRANCH 105 106
ATOM    106  CE  LYS A   4      -5.988  22.045  21.819  0.00  0.00    +0.109 C 
ATOM    107  NZ  LYS A   4      -6.231  20.843  20.978  0.00  0.00    -0.131 NA
ENDBRANCH 105 106
ENDBRANCH 104 105
ENDBRANCH 103 104
ENDBRANCH  72 103
ENDBRANCH  69  72
ENDBRANCH  68  70
BRANCH  68 108
ATOM    108  CB  VAL A   5      -0.596  26.440  26.974  0.00  0.00    +0.029 C 
ATOM    109  CG2 VAL A   5       0.564  26.044  27.865  0.00  0.00    +0.002 C 
ATOM    110  CG1 VAL A   5      -0.299  27.696  26.186  0.00  0.00    +0.002 C 
ENDBRANCH  68 108
ENDBRANCH  65  68
ENDBRANCH  64  67
BRANCH  64 111
ATOM    111  CB  ILE A   6      -0.896  20.511  26.320  0.00  0.00    +0.029 C 
ATOM    112  CG2 ILE A   6      -1.144  19.198  27.083  0.00  0.00    +0.002 C 
BRANCH 111 113
ATOM    113  CG1 ILE A   6      -1.972  20.736  25.208  0.00  0.00    +0.002 C 
ATOM    114  CD1 ILE A   6      -1.717  19.922  23.919  0.00  0.00    +0.000 C 
ENDBRANCH 111 113
ENDBRANCH  64 111
ENDBRANCH  61  64
ENDBRANCH  60  62
BRANCH  60 115
ATOM    115  CB  LEU A   7       0.466  22.269  31.930  0.00  0.00    +0.031 C 
BRANCH 115 116
ATOM    116  CG  LEU A   7       0.276  23.763  31.641  0.00  0.00    +0.002 C 
ATOM    117  CD2 LEU A   7      -0.194  24.475  32.861  0.00  0.00    +0.000 C 
ATOM    118  CD1 LEU A   7       1.568  24.391  31.168  0.00  0.00    +0.000 C 
ENDBRANCH 115 116
ENDBRANCH  60 115
ENDBRANCH  57  60
ENDBRANCH  56  59
BRANCH  56 119
ATOM    119  CB  HIS A   8       3.047  17.027  30.566  0.00  0.00    +0.079 C 
BRANCH 119 120
ATOM    120  CG  HIS A   8       2.555  16.884  29.161  0.00  0.00    +0.082 A 
ATOM    121  CD2 HIS A   8       1.795  15.910  28.609  0.00  0.00    +0.115 A 
ATOM    122  NE2 HIS A   8       1.580  16.269  27.299  0.00  0.00    -0.221 NA
ATOM    123  CE1 HIS A   8       2.198  17.439  27.104  0.00  0.00    +0.199 A 
ATOM    124  ND1 HIS A   8       2.790  17.865  28.210  0.00  0.00    -0.227 NA
ENDBRANCH 119 120
ENDBRANCH  56 119
ENDBRANCH  53  56
ENDBRANCH  52  54
BRANCH  52 125
ATOM    125  CB  LEU A   9       0.680  18.304  36.091  0.00  0.00    +0.031 C 
BRANCH 125 126
ATOM    126  CG  LEU A   9      -0.337  19.372  35.642  0.00  0.00    +0.002 C 
ATOM    127  CD2 LEU A   9      -1.513  19.385  36.576  0.00  0.00    +0.000 C 
ATOM    128  CD1 LEU A   9       0.281  20.790  35.605  0.00  0.00    +0.000 C 
ENDBRANCH 125 126
ENDBRANCH  52 125
ENDBRANCH  49  52
ENDBRANCH  48  50
BRANCH  48 129
ATOM    129  CB  LYS A  10       5.517  17.785  38.577  0.00  0.00    +0.031 C 
BRANCH 129 130
ATOM    130  CG  LYS A  10       6.612  18.504  37.796  0.00  0.00    +0.004 C 
BRANCH 130 131
ATOM    131  CD  LYS A  10       7.245  19.610  38.654  0.00  0.00    +0.021 C 
BRANCH 131 132
ATOM    132  CE  LYS A  10       8.202  20.468  37.863  0.00  0.00    +0.109 C 
ATOM    133  NZ  LYS A  10       8.765  21.581  38.676  0.00  0.00    -0.131 NA
ENDBRANCH 131 132
ENDBRANCH 130 131
ENDBRANCH 129 130
ENDBRANCH  48 129
ENDBRANCH  45  48
ENDBRANCH  44  46
BRANCH  44 134
ATOM    134  CB  GLU A  11       4.084  12.743  40.234  0.00  0.00    +0.043 C 
BRANCH 134 135
ATOM    135  CG  GLU A  11       3.171  11.584  40.585  0.00  0.00    +0.116 C 
BRANCH 135 136
ATOM    136  CD  GLU A  11       3.811  10.215  40.405  0.00  0.00    +0.365 C 
ATOM    137  OE2 GLU A  11       4.966  10.041  40.845  0.00  0.00    -0.246 OA
ATOM    138  OE1 GLU A  11       3.144   9.316  39.838  0.00  0.00    -0.246 OA
ENDBRANCH 135 136
ENDBRANCH 134 135
ENDBRANCH  44 134
ENDBRANCH  41  44
ENDBRANCH  40  42
BRANCH  40 139
ATOM    139  CB  ASP A  12       4.360  16.460  43.953  0.00  0.00    +0.145 C 
BRANCH 139 140
ATOM    140  CG  ASP A  12       5.350  17.441  43.346  0.00  0.00    +0.367 C 
ATOM    141  OD2 ASP A  12       5.941  18.241  44.109  0.00  0.00    -0.246 OA
ATOM    142  OD1 ASP A  12       5.556  17.394  42.115  0.00  0.00    -0.246 OA
ENDBRANCH 139 140
ENDBRANCH  40 139
ENDBRANCH  37  40
ENDBRANCH  36  39
BRANCH  36 143
ATOM    143  CB  GLN A  13       2.067  19.824  40.278  0.00  0.00    +0.041 C 
BRANCH 143 144
ATOM    144  CG  GLN A  13       3.459  20.211  40.840  0.00  0.00    +0.091 C 
BRANCH 144 145
ATOM    145  CD  GLN A  13       3.395  21.012  42.123  0.00  0.00    +0.261 C 
ATOM    146  NE2 GLN A  13       4.352  20.782  43.033  0.00  0.00    -0.088 NA
ATOM    147  OE1 GLN A  13       2.514  21.861  42.310  0.00  0.00    -0.272 OA
ENDBRANCH 144 145
ENDBRANCH 143 144
ENDBRANCH  36 143
ENDBRANCH  33  36
ENDBRANCH  29  34
ENDBRANCH  26  29
ENDBRANCH  25  27
BRANCH  25 148
ATOM    148  CB  GLU A  15      -3.550  20.582  43.908  0.00  0.00    +0.043 C 
BRANCH 148 149
ATOM    149  CG  GLU A  15      -2.582  21.695  43.530  0.00  0.00    +0.116 C 
BRANCH 149 150
ATOM    150  CD  GLU A  15      -1.933  22.334  44.738  0.00  0.00    +0.365 C 
ATOM    151  OE2 GLU A  15      -2.484  23.334  45.252  0.00  0.00    -0.246 OA
ATOM    152  OE1 GLU A  15      -0.900  21.802  45.200  0.00  0.00    -0.246 OA
ENDBRANCH 149 150
ENDBRANCH 148 149
ENDBRANCH  25 148
ENDBRANCH  22  25
ENDBRANCH  21  24
BRANCH  21 153
ATOM    153  CB  TYR A  16      -3.014  22.606  38.894  0.00  0.00    +0.057 C 
BRANCH 153 154
ATOM    154  CG  TYR A  16      -2.220  23.354  39.947  0.00  0.00    -0.020 A 
ATOM    155  CD2 TYR A  16      -2.764  24.458  40.601  0.00  0.00    -0.001 A 
ATOM    156  CE2 TYR A  16      -2.071  25.115  41.618  0.00  0.00    +0.042 A 
ATOM    157  CZ  TYR A  16      -0.837  24.641  42.026  0.00  0.00    +0.196 A 
ATOM    158  OH  TYR A  16      -0.188  25.301  43.040  0.00  0.00    -0.287 OA
ATOM    159  CE1 TYR A  16      -0.281  23.527  41.408  0.00  0.00    +0.042 A 
ATOM    160  CD1 TYR A  16      -0.981  22.881  40.386  0.00  0.00    -0.001 A 
ENDBRANCH 153 154
ENDBRANCH  21 153
ENDBRANCH  18  21
ENDBRANCH  17  19
BRANCH  17 161
ATOM    161  CB  LEU A  17      -6.063  17.836  37.712  0.00  0.00    +0.031 C 
BRANCH 161 162
ATOM    162  CG  LEU A  17      -4.743  17.700  36.955  0.00  0.00    +0.002 C 
ATOM    163  CD2 LEU A  17      -4.311  16.254  36.857  0.00  0.00    +0.000 C 
ATOM    164  CD1 LEU A  17      -4.810  18.364  35.589  0.00  0.00    +0.000 C 
ENDBRANCH 161 162
ENDBRANCH  17 161
ENDBRANCH  14  17
ENDBRANCH  13  15
BRANCH  13 165
ATOM    165  CB  GLU A  18      -8.877  19.788  42.207  0.00  0.00    +0.043 C 
BRANCH 165 166
ATOM    166  CG  GLU A  18      -8.100  18.547  42.633  0.00  0.00    +0.116 C 
BRANCH 166 167
ATOM    167  CD  GLU A  18      -8.818  17.209  42.567  0.00  0.00    +0.365 C 
ATOM    168  OE2 GLU A  18      -8.116  16.173  42.598  0.00  0.00    -0.246 OA
ATOM    169  OE1 GLU A  18     -10.071  17.187  42.520  0.00  0.00    -0.246 OA
ENDBRANCH 166 167
ENDBRANCH 165 166
ENDBRANCH  13 165
ENDBRANCH  10  13
ENDBRANCH   9  12
BRANCH   9 170
ATOM    170  CB  GLU A  19     -13.671  21.419  39.580  0.00  0.00    +0.043 C 
BRANCH 170 171
ATOM    171  CG  GLU A  19     -14.737  22.447  39.235  0.00  0.00    +0.116 C 
BRANCH 171 172
ATOM    172  CD  GLU A  19     -16.166  21.932  39.182  0.00  0.00    +0.365 C 
ATOM    173  OE2 GLU A  19     -16.392  20.740  39.497  0.00  0.00    -0.246 OA
ATOM    174  OE1 GLU A  19     -17.065  22.727  38.819  0.00  0.00    -0.246 OA
ENDBRANCH 171 172
ENDBRANCH 170 171
ENDBRANCH   9 170
ENDBRANCH   6   9
ENDBRANCH   5   7
BRANCH   5 175
ATOM    175  CB  ARG A  20     -12.719  23.212  44.526  0.00  0.00    +0.035 C 
BRANCH 175 176
ATOM    176  CG  ARG A  20     -14.144  22.693  44.703  0.00  0.00    +0.049 C 
BRANCH 176 177
ATOM    177  CD  ARG A  20     -14.504  22.429  46.166  0.00  0.00    +0.220 C 
BRANCH 177 178
ATOM    178  NE  ARG A  20     -13.481  21.652  46.877  0.00  0.00    -0.087 NA
ATOM    179  CZ  ARG A  20     -13.583  20.363  47.192  0.00  0.00    +0.535 C 
ATOM    180  NH2 ARG A  20     -12.599  19.753  47.841  0.00  0.00    +0.135 NA
ATOM    181  NH1 ARG A  20     -14.675  19.677  46.872  0.00  0.00    +0.135 NA
ENDBRANCH 177 178
ENDBRANCH 176 177
ENDBRANCH 175 176
ENDBRANCH   5 175
ENDBRANCH   2   5
ENDBRANCH   1   4
BRANCH   1 182
ATOM    182  C   ARG A  21      -8.508  25.538  41.821  0.00  0.00    +0.262 C 
ATOM    183  O   ARG A  21      -8.069  26.676  42.023  0.00  0.00    -0.271 OA
ATOM    184  N   ILE A  22      -8.905  25.113  40.608  0.00  0.00    -0.196 NA
BRANCH 184 185
ATOM    185  CA  ILE A  22      -8.839  25.982  39.433  0.00  0.00    +0.173 C 
BRANCH 185 186
ATOM    186  C   ILE A  22      -9.734  27.222  39.661  0.00  0.00    +0.262 C 
ATOM    187  N   LYS A  23     -10.993  27.019  40.139  0.00  0.00    -0.196 NA
ATOM    188  O   ILE A  22      -9.260  28.340  39.466  0.00  0.00    -0.271 OA
BRANCH 187 189
ATOM    189  CA  LYS A  23     -11.916  28.135  40.404  0.00  0.00    +0.173 C 
BRANCH 189 190
ATOM    190  C   LYS A  23     -11.321  29.145  41.397  0.00  0.00    +0.262 C 
ATOM    191  N   GLU A  24     -10.708  28.633  42.486  0.00  0.00    -0.196 NA
ATOM    192  O   LYS A  23     -11.377  30.358  41.157  0.00  0.00    -0.271 OA
BRANCH 191 193
ATOM    193  CA  GLU A  24     -10.100  29.474  43.511  0.00  0.00    +0.173 C 
BRANCH 193 194
ATOM    194  C   GLU A  24      -9.017  30.356  42.885  0.00  0.00    +0.262 C 
ATOM    195  O   GLU A  24      -8.987  31.564  43.133  0.00  0.00    -0.271 OA
ATOM    196  N   ILE A  25      -8.128  29.739  42.083  0.00  0.00    -0.196 NA
BRANCH 196 197
ATOM    197  CA  ILE A  25      -7.014  30.446  41.454  0.00  0.00    +0.173 C 
BRANCH 197 198
ATOM    198  C   ILE A  25      -7.492  31.549  40.514  0.00  0.00    +0.262 C 
ATOM    199  O   ILE A  25      -7.012  32.683  40.588  0.00  0.00    -0.271 OA
ATOM    200  N   VAL A  26      -8.451  31.207  39.642  0.00  0.00    -0.196 NA
BRANCH 200 201
ATOM    201  CA  VAL A  26      -9.015  32.109  38.649  0.00  0.00    +0.173 C 
BRANCH 201 202
ATOM    202  CB  VAL A  26      -9.908  31.313  37.655  0.00  0.00    +0.029 C 
ATOM    203  CG2 VAL A  26      -9.056  30.354  36.829  0.00  0.00    +0.002 C 
ATOM    204  CG1 VAL A  26     -10.721  32.235  36.744  0.00  0.00    +0.002 C 
ENDBRANCH 201 202
BRANCH 201 205
ATOM    205  C   VAL A  26      -9.717  33.309  39.326  0.00  0.00    +0.262 C 
ATOM    206  N   LYS A  27     -10.474  33.062  40.383  0.00  0.00    -0.196 NA
ATOM    207  O   VAL A  26      -9.507  34.443  38.897  0.00  0.00    -0.271 OA
BRANCH 206 208
ATOM    208  CA  LYS A  27     -11.143  34.112  41.142  0.00  0.00    +0.173 C 
BRANCH 208 209
ATOM    209  C   LYS A  27     -10.163  35.088  41.846  0.00  0.00    +0.262 C 
ATOM    210  N   LYS A  28      -9.111  34.541  42.417  0.00  0.00    -0.196 NA
ATOM    211  O   LYS A  27     -10.359  36.278  41.871  0.00  0.00    -0.271 OA
BRANCH 210 212
ATOM    212  CA  LYS A  28      -8.083  35.309  43.077  0.00  0.00    +0.173 C 
BRANCH 212 213
ATOM    213  C   LYS A  28      -7.191  36.172  42.212  0.00  0.00    +0.262 C 
ATOM    214  O   LYS A  28      -6.900  37.289  42.543  0.00  0.00    -0.271 OA
ATOM    215  N   HIS A  29      -6.732  35.597  41.116  0.00  0.00    -0.196 NA
BRANCH 215 216
ATOM    216  CA  HIS A  29      -5.808  36.243  40.208  0.00  0.00    +0.179 C 
BRANCH 216 217
ATOM    217  C   HIS A  29      -6.375  36.827  38.905  0.00  0.00    +0.262 C 
ATOM    218  O   HIS A  29      -5.874  37.810  38.417  0.00  0.00    -0.271 OA
ATOM    219  N   SER A  30      -7.382  36.188  38.333  0.00  0.00    -0.194 NA
BRANCH 219 220
ATOM    220  CA  SER A  30      -7.926  36.559  37.035  0.00  0.00    +0.205 C 
BRANCH 220 221
ATOM    221  C   SER A  30      -9.359  37.062  36.957  0.00  0.00    +0.264 C 
ATOM    222  N   GLN A  31      -9.822  37.639  38.044  0.00  0.00    -0.196 NA
ATOM    223  O   SER A  30     -10.025  36.932  35.961  0.00  0.00    -0.271 OA
BRANCH 222 224
ATOM    224  CA  GLN A  31     -11.185  38.108  38.160  0.00  0.00    +0.173 C 
BRANCH 224 225
ATOM    225  C   GLN A  31     -11.565  39.175  37.137  0.00  0.00    +0.262 C 
ATOM    226  O   GLN A  31     -12.716  39.329  36.791  0.00  0.00    -0.271 OA
ATOM    227  N   PHE A  32     -10.569  39.906  36.675  0.00  0.00    -0.196 NA
BRANCH 227 228
ATOM    228  CA  PHE A  32     -10.715  41.064  35.783  0.00  0.00    +0.177 C 
BRANCH 228 229
ATOM    229  C   PHE A  32     -10.282  40.973  34.289  0.00  0.00    +0.262 C 
ATOM    230  O   PHE A  32      -9.839  41.968  33.729  0.00  0.00    -0.271 OA
ATOM    231  N   ILE A  33     -10.394  39.781  33.693  0.00  0.00    -0.196 NA
BRANCH 231 232
ATOM    232  CA  ILE A  33     -10.035  39.460  32.299  0.00  0.00    +0.173 C 
BRANCH 232 233
ATOM    233  C   ILE A  33     -11.307  39.723  31.457  0.00  0.00    +0.262 C 
ATOM    234  O   ILE A  33     -12.398  39.283  31.836  0.00  0.00    -0.271 OA
ATOM    235  N   GLY A  34     -11.147  40.412  30.330  0.00  0.00    -0.194 NA
BRANCH 235 236
ATOM    236  CA  GLY A  34     -12.246  40.831  29.458  0.00  0.00    +0.201 C 
BRANCH 236 237
ATOM    237  C   GLY A  34     -12.827  39.832  28.476  0.00  0.00    +0.264 C 
ATOM    238  N   TYR A  35     -12.594  38.529  28.706  0.00  0.00    -0.196 NA
ATOM    239  O   GLY A  34     -13.480  40.230  27.505  0.00  0.00    -0.271 OA
BRANCH 238 240
ATOM    240  CA  TYR A  35     -13.091  37.453  27.843  0.00  0.00    +0.176 C 
BRANCH 240 241
ATOM    241  C   TYR A  35     -13.630  36.325  28.726  0.00  0.00    +0.246 C 
ATOM    242  O   TYR A  35     -13.113  36.139  29.842  0.00  0.00    -0.273 OA
ATOM    243  N   PRO A  36     -14.653  35.569  28.241  0.00  0.00    -0.272 N 
ATOM    244  CA  PRO A  36     -15.185  34.457  29.048  0.00  0.00    +0.154 C 
ATOM    245  CB  PRO A  36     -16.322  33.865  28.183  0.00  0.00    +0.031 C 
ATOM    246  CG  PRO A  36     -16.560  34.827  27.102  0.00  0.00    +0.024 C 
ATOM    247  CD  PRO A  36     -15.335  35.667  26.932  0.00  0.00    +0.094 C 
BRANCH 244 248
ATOM    248  C   PRO A  36     -14.117  33.394  29.285  0.00  0.00    +0.260 C 
ATOM    249  N   ILE A  37     -13.964  32.999  30.548  0.00  0.00    -0.196 NA
ATOM    250  O   PRO A  36     -13.389  33.025  28.353  0.00  0.00    -0.272 OA
BRANCH 249 251
ATOM    251  CA  ILE A  37     -13.056  31.932  30.934  0.00  0.00    +0.173 C 
BRANCH 251 252
ATOM    252  C   ILE A  37     -13.971  30.779  31.306  0.00  0.00    +0.262 C 
ATOM    253  O   ILE A  37     -14.709  30.873  32.305  0.00  0.00    -0.271 OA
ATOM    254  N   THR A  38     -13.942  29.714  30.505  0.00  0.00    -0.194 NA
BRANCH 254 255
ATOM    255  CA  THR A  38     -14.791  28.549  30.773  0.00  0.00    +0.203 C 
BRANCH 255 256
ATOM    256  CB  THR A  38     -15.635  28.160  29.539  0.00  0.00    +0.181 C 
ATOM    257  CG2 THR A  38     -16.586  26.981  29.825  0.00  0.00    +0.038 C 
ATOM    258  OG1 THR A  38     -16.399  29.298  29.096  0.00  0.00    -0.221 OA
ENDBRANCH 255 256
BRANCH 255 259
ATOM    259  C   THR A  38     -13.979  27.361  31.317  0.00  0.00    +0.264 C 
ATOM    260  N   LEU A  39     -14.379  26.868  32.477  0.00  0.00    -0.196 NA
ATOM    261  O   THR A  38     -13.047  26.886  30.669  0.00  0.00    -0.271 OA
BRANCH 260 262
ATOM    262  CA  LEU A  39     -13.775  25.685  33.068  0.00  0.00    +0.173 C 
BRANCH 262 263
ATOM    263  C   LEU A  39     -14.547  24.445  32.577  0.00  0.00    +0.262 C 
ATOM    264  O   LEU A  39     -15.754  24.347  32.815  0.00  0.00    -0.271 OA
ATOM    265  N   PHE A  40     -13.859  23.520  31.904  0.00  0.00    -0.196 NA
BRANCH 265 266
ATOM    266  CA  PHE A  40     -14.484  22.273  31.429  0.00  0.00    +0.177 C 
BRANCH 266 267
ATOM    267  C   PHE A  40     -14.429  21.245  32.564  0.00  0.00    +0.262 C 
ATOM    268  N   VAL A  41     -15.605  20.869  33.077  0.00  0.00    -0.196 NA
ATOM    269  O   PHE A  40     -13.344  20.848  32.998  0.00  0.00    -0.271 OA
BRANCH 268 270
ATOM    270  CA  VAL A  41     -15.733  19.894  34.163  0.00  0.00    +0.173 C 
BRANCH 270 271
ATOM    271  C   VAL A  41     -15.535  18.472  33.593  0.00  0.00    +0.262 C 
ATOM    272  N   GLU A  42     -14.710  17.651  34.245  0.00  0.00    -0.196 NA
ATOM    273  O   VAL A  41     -16.171  18.113  32.604  0.00  0.00    -0.271 OA
BRANCH 272 274
ATOM    274  CA  GLU A  42     -14.523  16.271  33.773  0.00  0.00    +0.173 C 
BRANCH 274 275
ATOM    275  C   GLU A  42     -15.784  15.430  34.047  0.00  0.00    +0.262 C 
ATOM    276  O   GLU A  42     -16.469  15.639  35.050  0.00  0.00    -0.271 OA
ATOM    277  N   LYS A  43     -16.119  14.544  33.108  0.00  0.00    -0.198 NA
BRANCH 277 278
ATOM    278  CA  LYS A  43     -17.312  13.688  33.195  0.00  0.00    +0.160 C 
BRANCH 278 279
ATOM    279  C   LYS A  43     -17.080  12.489  34.114  0.00  0.00    +0.229 C 
ATOM    280  O   LYS A  43     -15.950  12.043  34.294  0.00  0.00    -0.286 OA
ENDBRANCH 278 279
BRANCH 278 281
ATOM    281  CB  LYS A  43     -17.782  13.247  31.789  0.00  0.00    +0.030 C 
BRANCH 281 282
ATOM    282  CG  LYS A  43     -18.210  14.407  30.881  0.00  0.00    +0.004 C 
BRANCH 282 283
ATOM    283  CD  LYS A  43     -18.493  14.002  29.394  0.00  0.00    +0.021 C 
BRANCH 283 284
ATOM    284  CE  LYS A  43     -17.349  13.351  28.643  0.00  0.00    +0.109 C 
ATOM    285  NZ  LYS A  43     -16.156  14.251  28.494  0.00  0.00    -0.131 NA
ENDBRANCH 283 284
ENDBRANCH 282 283
ENDBRANCH 281 282
ENDBRANCH 278 281
ENDBRANCH 277 278
ENDBRANCH 274 275
BRANCH 274 286
ATOM    286  CB  GLU A  42     -13.292  15.633  34.406  0.00  0.00    +0.043 C 
BRANCH 286 287
ATOM    287  CG  GLU A  42     -12.007  16.312  33.968  0.00  0.00    +0.116 C 
BRANCH 287 288
ATOM    288  CD  GLU A  42     -10.814  15.384  34.032  0.00  0.00    +0.365 C 
ATOM    289  OE2 GLU A  42     -10.039  15.482  35.006  0.00  0.00    -0.246 OA
ATOM    290  OE1 GLU A  42     -10.655  14.554  33.110  0.00  0.00    -0.246 OA
ENDBRANCH 287 288
ENDBRANCH 286 287
ENDBRANCH 274 286
ENDBRANCH 272 274
ENDBRANCH 270 271
BRANCH 270 291
ATOM    291  CB  VAL A  41     -17.119  20.024  34.870  0.00  0.00    +0.029 C 
ATOM    292  CG2 VAL A  41     -17.250  19.010  36.008  0.00  0.00    +0.002 C 
ATOM    293  CG1 VAL A  41     -17.350  21.447  35.385  0.00  0.00    +0.002 C 
ENDBRANCH 270 291
ENDBRANCH 268 270
ENDBRANCH 266 267
BRANCH 266 294
ATOM    294  CB  PHE A  40     -13.788  21.734  30.168  0.00  0.00    +0.057 C 
BRANCH 294 295
ATOM    295  CG  PHE A  40     -14.216  22.384  28.872  0.00  0.00    -0.020 A 
ATOM    296  CD2 PHE A  40     -14.282  23.770  28.752  0.00  0.00    -0.004 A 
ATOM    297  CE2 PHE A  40     -14.672  24.372  27.546  0.00  0.00    -0.000 A 
ATOM    298  CZ  PHE A  40     -14.970  23.592  26.454  0.00  0.00    -0.000 A 
ATOM    299  CE1 PHE A  40     -14.898  22.218  26.549  0.00  0.00    -0.000 A 
ATOM    300  CD1 PHE A  40     -14.518  21.613  27.758  0.00  0.00    -0.004 A 
ENDBRANCH 294 295
ENDBRANCH 266 294
ENDBRANCH 265 266
ENDBRANCH 262 263
BRANCH 262 301
ATOM    301  CB  LEU A  39     -13.812  25.756  34.613  0.00  0.00    +0.031 C 
BRANCH 301 302
ATOM    302  CG  LEU A  39     -13.265  24.512  35.352  0.00  0.00    +0.002 C 
ATOM    303  CD2 LEU A  39     -13.200  24.757  36.851  0.00  0.00    +0.000 C 
ATOM    304  CD1 LEU A  39     -11.861  24.070  34.809  0.00  0.00    +0.000 C 
ENDBRANCH 301 302
ENDBRANCH 262 301
ENDBRANCH 260 262
ENDBRANCH 255 259
ENDBRANCH 254 255
ENDBRANCH 251 252
BRANCH 251 305
ATOM    305  CB  ILE A  37     -12.067  32.299  32.070  0.00  0.00    +0.029 C 
ATOM    306  CG2 ILE A  37     -11.163  31.090  32.405  0.00  0.00    +0.002 C 
BRANCH 305 307
ATOM    307  CG1 ILE A  37     -11.226  33.567  31.699  0.00  0.00    +0.002 C 
ATOM    308  CD1 ILE A  37     -10.490  34.237  32.877  0.00  0.00    +0.000 C 
ENDBRANCH 305 307
ENDBRANCH 251 305
ENDBRANCH 249 251
ENDBRANCH 244 248
ENDBRANCH 240 241
BRANCH 240 309
ATOM    309  CB  TYR A  35     -11.970  36.922  26.915  0.00  0.00    +0.057 C 
BRANCH 309 310
ATOM    310  CG  TYR A  35     -11.340  38.030  26.098  0.00  0.00    -0.020 A 
ATOM    311  CD2 TYR A  35     -10.197  38.686  26.545  0.00  0.00    -0.001 A 
ATOM    312  CE2 TYR A  35      -9.653  39.753  25.833  0.00  0.00    +0.042 A 
ATOM    313  CZ  TYR A  35     -10.270  40.190  24.670  0.00  0.00    +0.196 A 
ATOM    314  CE1 TYR A  35     -11.406  39.549  24.204  0.00  0.00    +0.042 A 
ATOM    315  OH  TYR A  35      -9.726  41.215  23.945  0.00  0.00    -0.287 OA
ATOM    316  CD1 TYR A  35     -11.935  38.478  24.920  0.00  0.00    -0.001 A 
ENDBRANCH 309 310
ENDBRANCH 240 309
ENDBRANCH 238 240
ENDBRANCH 236 237
ENDBRANCH 235 236
ENDBRANCH 232 233
BRANCH 232 317
ATOM    317  CB  ILE A  33      -9.555  37.971  32.197  0.00  0.00    +0.029 C 
ATOM    318  CG2 ILE A  33      -9.482  37.463  30.741  0.00  0.00    +0.002 C 
BRANCH 317 319
ATOM    319  CG1 ILE A  33      -8.219  37.725  32.971  0.00  0.00    +0.002 C 
ATOM    320  CD1 ILE A  33      -6.894  38.389  32.426  0.00  0.00    +0.000 C 
ENDBRANCH 317 319
ENDBRANCH 232 317
ENDBRANCH 231 232
ENDBRANCH 228 229
BRANCH 228 321
ATOM    321  CB  PHE A  32     -10.029  42.247  36.444  0.00  0.00    +0.057 C 
BRANCH 321 322
ATOM    322  CG  PHE A  32     -10.586  42.588  37.799  0.00  0.00    -0.020 A 
ATOM    323  CD2 PHE A  32      -9.756  43.037  38.800  0.00  0.00    -0.004 A 
ATOM    324  CE2 PHE A  32     -10.252  43.367  40.034  0.00  0.00    -0.000 A 
ATOM    325  CZ  PHE A  32     -11.603  43.256  40.286  0.00  0.00    -0.000 A 
ATOM    326  CE1 PHE A  32     -12.451  42.823  39.289  0.00  0.00    -0.000 A 
ATOM    327  CD1 PHE A  32     -11.938  42.488  38.052  0.00  0.00    -0.004 A 
ENDBRANCH 321 322
ENDBRANCH 228 321
ENDBRANCH 227 228
ENDBRANCH 224 225
BRANCH 224 328
ATOM    328  CB  GLN A  31     -11.384  38.658  39.568  0.00  0.00    +0.041 C 
BRANCH 328 329
ATOM    329  CG  GLN A  31     -12.822  38.960  39.918  0.00  0.00    +0.091 C 
BRANCH 329 330
ATOM    330  CD  GLN A  31     -12.950  39.691  41.240  0.00  0.00    +0.261 C 
ATOM    331  OE1 GLN A  31     -11.983  39.809  41.986  0.00  0.00    -0.272 OA
ATOM    332  NE2 GLN A  31     -14.151  40.176  41.537  0.00  0.00    -0.088 NA
ENDBRANCH 329 330
ENDBRANCH 328 329
ENDBRANCH 224 328
ENDBRANCH 222 224
ENDBRANCH 220 221
BRANCH 220 333
ATOM    333  CB  SER A  30      -7.752  35.372  36.101  0.00  0.00    +0.213 C 
ATOM    334  OG  SER A  30      -6.431  34.890  36.175  0.00  0.00    -0.218 OA
ENDBRANCH 220 333
ENDBRANCH 219 220
ENDBRANCH 216 217
BRANCH 216 335
ATOM    335  CB  HIS A  29      -4.741  35.211  39.758  0.00  0.00    +0.079 C 
BRANCH 335 336
ATOM    336  CG  HIS A  29      -3.825  34.709  40.833  0.00  0.00    +0.082 A 
ATOM    337  ND1 HIS A  29      -4.013  33.504  41.474  0.00  0.00    -0.227 NA
ATOM    338  CE1 HIS A  29      -3.036  33.301  42.329  0.00  0.00    +0.199 A 
ATOM    339  NE2 HIS A  29      -2.199  34.313  42.247  0.00  0.00    -0.221 NA
ATOM    340  CD2 HIS A  29      -2.669  35.205  41.316  0.00  0.00    +0.115 A 
ENDBRANCH 335 336
ENDBRANCH 216 335
ENDBRANCH 215 216
ENDBRANCH 212 213
BRANCH 212 341
ATOM    341  CB  LYS A  28      -7.186  34.351  43.862  0.00  0.00    +0.031 C 
BRANCH 341 342
ATOM    342  CG  LYS A  28      -6.115  35.030  44.688  0.00  0.00    +0.004 C 
BRANCH 342 343
ATOM    343  CD  LYS A  28      -5.311  34.009  45.459  0.00  0.00    +0.021 C 
BRANCH 343 344
ATOM    344  CE  LYS A  28      -6.229  33.110  46.244  0.00  0.00    +0.109 C 
ATOM    345  NZ  LYS A  28      -5.898  31.696  45.973  0.00  0.00    -0.131 NA
ENDBRANCH 343 344
ENDBRANCH 342 343
ENDBRANCH 341 342
ENDBRANCH 212 341
ENDBRANCH 210 212
ENDBRANCH 208 209
BRANCH 208 346
ATOM    346  CB  LYS A  27     -12.112  33.500  42.148  0.00  0.00    +0.031 C 
BRANCH 346 347
ATOM    347  CG  LYS A  27     -13.258  34.423  42.497  0.00  0.00    +0.004 C 
BRANCH 347 348
ATOM    348  CD  LYS A  27     -14.395  33.735  43.238  0.00  0.00    +0.021 C 
BRANCH 348 349
ATOM    349  CE  LYS A  27     -15.702  34.524  43.097  0.00  0.00    +0.109 C 
ATOM    350  NZ  LYS A  27     -16.830  33.950  43.881  0.00  0.00    -0.131 NA
ENDBRANCH 348 349
ENDBRANCH 347 348
ENDBRANCH 346 347
ENDBRANCH 208 346
ENDBRANCH 206 208
ENDBRANCH 201 205
ENDBRANCH 200 201
ENDBRANCH 197 198
BRANCH 197 351
ATOM    351  CB  ILE A  25      -6.057  29.448  40.767  0.00  0.00    +0.029 C 
ATOM    352  CG2 ILE A  25      -4.943  30.183  39.978  0.00  0.00    +0.002 C 
BRANCH 351 353
ATOM    353  CG1 ILE A  25      -5.449  28.479  41.803  0.00  0.00    +0.002 C 
ATOM    354  CD1 ILE A  25      -4.795  27.287  41.186  0.00  0.00    +0.000 C 
ENDBRANCH 351 353
ENDBRANCH 197 351
ENDBRANCH 196 197
ENDBRANCH 193 194
BRANCH 193 355
ATOM    355  CB  GLU A  24      -9.478  28.593  44.599  0.00  0.00    +0.043 C 
BRANCH 355 356
ATOM    356  CG  GLU A  24      -8.859  29.396  45.725  0.00  0.00    +0.116 C 
BRANCH 356 357
ATOM    357  CD  GLU A  24      -8.035  28.552  46.673  0.00  0.00    +0.365 C 
ATOM    358  OE2 GLU A  24      -7.961  28.911  47.870  0.00  0.00    -0.246 OA
ATOM    359  OE1 GLU A  24      -7.490  27.518  46.223  0.00  0.00    -0.246 OA
ENDBRANCH 356 357
ENDBRANCH 355 356
ENDBRANCH 193 355
ENDBRANCH 191 193
ENDBRANCH 189 190
BRANCH 189 360
ATOM    360  CB  LYS A  23     -13.259  27.628  40.922  0.00  0.00    +0.031 C 
BRANCH 360 361
ATOM    361  CG  LYS A  23     -14.094  26.902  39.881  0.00  0.00    +0.004 C 
BRANCH 361 362
ATOM    362  CD  LYS A  23     -15.454  26.599  40.474  0.00  0.00    +0.021 C 
BRANCH 362 363
ATOM    363  CE  LYS A  23     -16.366  25.896  39.518  0.00  0.00    +0.109 C 
ATOM    364  NZ  LYS A  23     -17.667  25.565  40.160  0.00  0.00    -0.131 NA
ENDBRANCH 362 363
ENDBRANCH 361 362
ENDBRANCH 360 361
ENDBRANCH 189 360
ENDBRANCH 187 189
ENDBRANCH 185 186
BRANCH 185 365
ATOM    365  CB  ILE A  22      -9.199  25.220  38.135  0.00  0.00    +0.029 C 
ATOM    366  CG2 ILE A  22      -9.288  26.195  36.954  0.00  0.00    +0.002 C 
BRANCH 365 367
ATOM    367  CG1 ILE A  22      -8.183  24.070  37.854  0.00  0.00    +0.002 C 
ATOM    368  CD1 ILE A  22      -8.714  22.966  36.900  0.00  0.00    +0.000 C 
ENDBRANCH 365 367
ENDBRANCH 185 365
ENDBRANCH 184 185
ENDBRANCH   1 182
BRANCH   1 369
ATOM    369  CB  ARG A  21      -7.560  23.507  43.041  0.00  0.00    +0.035 C 
BRANCH 369 370
ATOM    370  CG  ARG A  21      -6.166  24.099  43.177  0.00  0.00    +0.049 C 
BRANCH 370 371
ATOM    371  CD  ARG A  21      -5.925  24.782  44.529  0.00  0.00    +0.220 C 
BRANCH 371 372
ATOM    372  NE  ARG A  21      -4.505  25.106  44.685  0.00  0.00    -0.087 NA
ATOM    373  CZ  ARG A  21      -4.011  26.324  44.880  0.00  0.00    +0.535 C 
ATOM    374  NH2 ARG A  21      -2.699  26.506  44.986  0.00  0.00    +0.135 NA
ATOM    375  NH1 ARG A  21      -4.825  27.371  44.983  0.00  0.00    +0.135 NA
ENDBRANCH 371 372
ENDBRANCH 370 371
ENDBRANCH 369 370
ENDBRANCH   1 369
TORSDOF 186
REMARK  Name = /Users/mlugowska/PhD/ML_residence_time_prediction/protein_files/5NYH_protein.pdb
REMARK  779 active torsions:
REMARK  status: ('A' for Active; 'I' for Inactive)
REMARK    1  A    between atoms: _2  and  _3
REMARK    2  A    between atoms: _2  and  _5
REMARK    3  A    between atoms: _5  and  _6
REMARK    4  A    between atoms: _6  and  _7
REMARK    5  A    between atoms: _10  and  _11
REMARK    6  A    between atoms: _11  and  _12
REMARK    7  A    between atoms: _11  and  _14
REMARK    8  A    between atoms: _17  and  _18
REMARK    9  A    between atoms: _18  and  _19
REMARK   10  A    between atoms: _18  and  _21
REMARK   11  A    between atoms: _21  and  _22
REMARK   12  A    between atoms: _22  and  _23
REMARK   13  A    between atoms: _26  and  _27
REMARK   14  A    between atoms: _27  and  _28
REMARK   15  A    between atoms: _27  and  _30
REMARK   16  A    between atoms: _33  and  _34
REMARK   17  A    between atoms: _34  and  _35
REMARK   18  A    between atoms: _34  and  _37
REMARK   19  A    between atoms: _37  and  _38
REMARK   20  A    between atoms: _44  and  _45
REMARK   21  A    between atoms: _45  and  _46
REMARK   22  A    between atoms: _49  and  _50
REMARK   23  A    between atoms: _50  and  _51
REMARK   24  A    between atoms: _50  and  _53
REMARK   25  A    between atoms: _53  and  _54
REMARK   26  A    between atoms: _60  and  _61
REMARK   27  A    between atoms: _61  and  _62
REMARK   28  A    between atoms: _61  and  _64
REMARK   29  A    between atoms: _64  and  _65
REMARK   30  A    between atoms: _65  and  _66
REMARK   31  A    between atoms: _69  and  _70
REMARK   32  A    between atoms: _70  and  _71
REMARK   33  A    between atoms: _74  and  _75
REMARK   34  A    between atoms: _75  and  _76
REMARK   35  A    between atoms: _75  and  _78
REMARK   36  A    between atoms: _78  and  _79
REMARK   37  A    between atoms: _79  and  _80
REMARK   38  A    between atoms: _83  and  _84
REMARK   39  A    between atoms: _84  and  _85
REMARK   40  A    between atoms: _84  and  _87
REMARK   41  A    between atoms: _87  and  _88
REMARK   42  A    between atoms: _91  and  _92
REMARK   43  A    between atoms: _92  and  _93
REMARK   44  A    between atoms: _96  and  _97
REMARK   45  A    between atoms: _97  and  _98
REMARK   46  A    between atoms: _97  and  _100
REMARK   47  A    between atoms: _100  and  _101
REMARK   48  A    between atoms: _101  and  _102
REMARK   49  A    between atoms: _105  and  _106
REMARK   50  A    between atoms: _106  and  _107
REMARK   51  A    between atoms: _106  and  _109
REMARK   52  A    between atoms: _109  and  _110
REMARK   53  A    between atoms: _113  and  _114
REMARK   54  A    between atoms: _114  and  _115
REMARK   55  A    between atoms: _114  and  _117
REMARK   56  A    between atoms: _117  and  _118
REMARK   57  A    between atoms: _118  and  _119
REMARK   58  A    between atoms: _121  and  _122
REMARK   59  A    between atoms: _122  and  _123
REMARK   60  A    between atoms: _122  and  _125
REMARK   61  A    between atoms: _127  and  _128
REMARK   62  A    between atoms: _128  and  _129
REMARK   63  A    between atoms: _128  and  _131
REMARK   64  A    between atoms: _131  and  _132
REMARK   65  A    between atoms: _135  and  _136
REMARK   66  A    between atoms: _136  and  _137
REMARK   67  A    between atoms: _136  and  _139
REMARK   68  A    between atoms: _139  and  _140
REMARK   69  A    between atoms: _143  and  _144
REMARK   70  A    between atoms: _144  and  _145
REMARK   71  A    between atoms: _144  and  _147
REMARK   72  A    between atoms: _147  and  _148
REMARK   73  A    between atoms: _151  and  _152
REMARK   74  A    between atoms: _152  and  _153
REMARK   75  A    between atoms: _152  and  _155
REMARK   76  A    between atoms: _155  and  _156
REMARK   77  A    between atoms: _159  and  _160
REMARK   78  A    between atoms: _160  and  _161
REMARK   79  A    between atoms: _160  and  _163
REMARK   80  A    between atoms: _166  and  _167
REMARK   81  A    between atoms: _167  and  _168
REMARK   82  A    between atoms: _167  and  _170
REMARK   83  A    between atoms: _170  and  _171
REMARK   84  A    between atoms: _177  and  _178
REMARK   85  A    between atoms: _178  and  _179
REMARK   86  A    between atoms: _178  and  _181
REMARK   87  A    between atoms: _181  and  _182
REMARK   88  A    between atoms: _189  and  _190
REMARK   89  A    between atoms: _190  and  _191
REMARK   90  A    between atoms: _190  and  _193
REMARK   91  A    between atoms: _195  and  _196
REMARK   92  A    between atoms: _196  and  _197
REMARK   93  A    between atoms: _196  and  _199
REMARK   94  A    between atoms: _199  and  _200
REMARK   95  A    between atoms: _203  and  _204
REMARK   96  A    between atoms: _204  and  _205
REMARK   97  A    between atoms: _204  and  _207
REMARK   98  A    between atoms: _207  and  _208
REMARK   99  A    between atoms: _208  and  _209
REMARK  100  A    between atoms: _209  and  _210
REMARK  101  A    between atoms: _212  and  _213
REMARK  102  A    between atoms: _213  and  _214
REMARK  103  A    between atoms: _213  and  _216
REMARK  104  A    between atoms: _216  and  _217
REMARK  105  A    between atoms: _217  and  _218
REMARK  106  A    between atoms: _221  and  _222
REMARK  107  A    between atoms: _222  and  _223
REMARK  108  A    between atoms: _222  and  _225
REMARK  109  A    between atoms: _225  and  _226
REMARK  110  A    between atoms: _229  and  _230
REMARK  111  A    between atoms: _230  and  _231
REMARK  112  A    between atoms: _230  and  _233
REMARK  113  A    between atoms: _233  and  _234
REMARK  114  A    between atoms: _240  and  _241
REMARK  115  A    between atoms: _241  and  _242
REMARK  116  A    between atoms: _241  and  _244
REMARK  117  A    between atoms: _244  and  _245
REMARK  118  A    between atoms: _248  and  _249
REMARK  119  A    between atoms: _249  and  _250
REMARK  120  A    between atoms: _249  and  _252
REMARK  121  A    between atoms: _252  and  _253
REMARK  122  A    between atoms: _253  and  _254
REMARK  123  A    between atoms: _254  and  _255
REMARK  124  A    between atoms: _259  and  _260
REMARK  125  A    between atoms: _260  and  _261
REMARK  126  A    between atoms: _260  and  _263
REMARK  127  A    between atoms: _263  and  _264
REMARK  128  A    between atoms: _264  and  _265
REMARK  129  A    between atoms: _268  and  _269
REMARK  130  A    between atoms: _269  and  _270
REMARK  131  A    between atoms: _269  and  _272
REMARK  132  A    between atoms: _272  and  _273
REMARK  133  A    between atoms: _276  and  _277
REMARK  134  A    between atoms: _277  and  _278
REMARK  135  A    between atoms: _277  and  _280
REMARK  136  A    between atoms: _280  and  _281
REMARK  137  A    between atoms: _284  and  _285
REMARK  138  A    between atoms: _285  and  _286
REMARK  139  A    between atoms: _285  and  _288
REMARK  140  A    between atoms: _290  and  _291
REMARK  141  A    between atoms: _291  and  _292
REMARK  142  A    between atoms: _291  and  _294
REMARK  143  A    between atoms: _294  and  _295
REMARK  144  A    between atoms: _298  and  _299
REMARK  145  A    between atoms: _299  and  _300
REMARK  146  A    between atoms: _299  and  _302
REMARK  147  A    between atoms: _304  and  _305
REMARK  148  A    between atoms: _305  and  _306
REMARK  149  A    between atoms: _305  and  _308
REMARK  150  A    between atoms: _310  and  _311
REMARK  151  A    between atoms: _311  and  _312
REMARK  152  A    between atoms: _311  and  _314
REMARK  153  A    between atoms: _314  and  _315
REMARK  154  A    between atoms: _318  and  _319
REMARK  155  A    between atoms: _319  and  _320
REMARK  156  A    between atoms: _323  and  _324
REMARK  157  A    between atoms: _324  and  _325
REMARK  158  A    between atoms: _324  and  _327
REMARK  159  A    between atoms: _327  and  _328
REMARK  160  A    between atoms: _331  and  _332
REMARK  161  A    between atoms: _332  and  _333
REMARK  162  A    between atoms: _332  and  _335
REMARK  163  A    between atoms: _335  and  _336
REMARK  164  A    between atoms: _339  and  _340
REMARK  165  A    between atoms: _340  and  _341
REMARK  166  A    between atoms: _340  and  _343
REMARK  167  A    between atoms: _343  and  _344
REMARK  168  A    between atoms: _344  and  _345
REMARK  169  A    between atoms: _345  and  _346
REMARK  170  A    between atoms: _348  and  _349
REMARK  171  A    between atoms: _349  and  _350
REMARK  172  A    between atoms: _349  and  _352
REMARK  173  A    between atoms: _352  and  _353
REMARK  174  A    between atoms: _356  and  _357
REMARK  175  A    between atoms: _357  and  _358
REMARK  176  A    between atoms: _357  and  _360
REMARK  177  A    between atoms: _360  and  _361
REMARK  178  A    between atoms: _361  and  _362
REMARK  179  A    between atoms: _362  and  _363
REMARK  180  A    between atoms: _367  and  _368
REMARK  181  A    between atoms: _368  and  _369
REMARK  182  A    between atoms: _368  and  _371
REMARK  183  A    between atoms: _371  and  _372
REMARK  184  A    between atoms: _379  and  _380
REMARK  185  A    between atoms: _380  and  _381
REMARK  186  A    between atoms: _380  and  _383
REMARK  187  A    between atoms: _383  and  _384
REMARK  188  A    between atoms: _384  and  _385
REMARK  189  A    between atoms: _388  and  _389
REMARK  190  A    between atoms: _389  and  _390
REMARK  191  A    between atoms: _389  and  _392
REMARK  192  A    between atoms: _394  and  _395
REMARK  193  A    between atoms: _395  and  _396
REMARK  194  A    between atoms: _395  and  _398
REMARK  195  A    between atoms: _398  and  _399
REMARK  196  A    between atoms: _402  and  _403
REMARK  197  A    between atoms: _403  and  _404
REMARK  198  A    between atoms: _403  and  _406
REMARK  199  A    between atoms: _409  and  _410
REMARK  200  A    between atoms: _410  and  _411
REMARK  201  A    between atoms: _410  and  _413
REMARK  202  A    between atoms: _413  and  _414
REMARK  203  A    between atoms: _418  and  _419
REMARK  204  A    between atoms: _424  and  _425
REMARK  205  A    between atoms: _425  and  _426
REMARK  206  A    between atoms: _425  and  _428
REMARK  207  A    between atoms: _430  and  _431
REMARK  208  A    between atoms: _431  and  _432
REMARK  209  A    between atoms: _431  and  _434
REMARK  210  A    between atoms: _434  and  _435
REMARK  211  A    between atoms: _435  and  _436
REMARK  212  A    between atoms: _436  and  _437
REMARK  213  A    between atoms: _439  and  _440
REMARK  214  A    between atoms: _440  and  _441
REMARK  215  A    between atoms: _440  and  _443
REMARK  216  A    between atoms: _443  and  _444
REMARK  217  A    between atoms: _447  and  _448
REMARK  218  A    between atoms: _448  and  _449
REMARK  219  A    between atoms: _448  and  _451
REMARK  220  A    between atoms: _451  and  _452
REMARK  221  A    between atoms: _455  and  _456
REMARK  222  A    between atoms: _456  and  _457
REMARK  223  A    between atoms: _456  and  _459
REMARK  224  A    between atoms: _461  and  _462
REMARK  225  A    between atoms: _462  and  _463
REMARK  226  A    between atoms: _465  and  _466
REMARK  227  A    between atoms: _466  and  _467
REMARK  228  A    between atoms: _466  and  _469
REMARK  229  A    between atoms: _469  and  _470
REMARK  230  A    between atoms: _470  and  _471
REMARK  231  A    between atoms: _471  and  _472
REMARK  232  A    between atoms: _474  and  _475
REMARK  233  A    between atoms: _475  and  _476
REMARK  234  A    between atoms: _475  and  _478
REMARK  235  A    between atoms: _478  and  _479
REMARK  236  A    between atoms: _479  and  _480
REMARK  237  A    between atoms: _483  and  _484
REMARK  238  A    between atoms: _484  and  _485
REMARK  239  A    between atoms: _484  and  _487
REMARK  240  A    between atoms: _487  and  _488
REMARK  241  A    between atoms: _491  and  _492
REMARK  242  A    between atoms: _492  and  _493
REMARK  243  A    between atoms: _492  and  _495
REMARK  244  A    between atoms: _495  and  _496
REMARK  245  A    between atoms: _501  and  _502
REMARK  246  A    between atoms: _502  and  _503
REMARK  247  A    between atoms: _502  and  _505
REMARK  248  A    between atoms: _505  and  _506
REMARK  249  A    between atoms: _509  and  _510
REMARK  250  A    between atoms: _510  and  _511
REMARK  251  A    between atoms: _510  and  _513
REMARK  252  A    between atoms: _513  and  _514
REMARK  253  A    between atoms: _517  and  _518
REMARK  254  A    between atoms: _518  and  _519
REMARK  255  A    between atoms: _518  and  _521
REMARK  256  A    between atoms: _521  and  _522
REMARK  257  A    between atoms: _525  and  _526
REMARK  258  A    between atoms: _526  and  _527
REMARK  259  A    between atoms: _526  and  _529
REMARK  260  A    between atoms: _529  and  _530
REMARK  261  A    between atoms: _534  and  _535
REMARK  262  A    between atoms: _540  and  _541
REMARK  263  A    between atoms: _541  and  _542
REMARK  264  A    between atoms: _541  and  _544
REMARK  265  A    between atoms: _544  and  _545
REMARK  266  A    between atoms: _548  and  _549
REMARK  267  A    between atoms: _549  and  _552
REMARK  268  A    between atoms: _552  and  _553
REMARK  269  A    between atoms: _553  and  _554
REMARK  270  A    between atoms: _554  and  _555
REMARK  271  A    between atoms: _568  and  _569
REMARK  272  A    between atoms: _576  and  _577
REMARK  273  A    between atoms: _576  and  _579
REMARK  274  A    between atoms: _579  and  _580
REMARK  275  A    between atoms: _583  and  _584
REMARK  276  A    between atoms: _584  and  _585
REMARK  277  A    between atoms: _584  and  _587
REMARK  278  A    between atoms: _587  and  _588
REMARK  279  A    between atoms: _588  and  _589
REMARK  280  A    between atoms: _589  and  _590
REMARK  281  A    between atoms: _594  and  _595
REMARK  282  A    between atoms: _595  and  _596
REMARK  283  A    between atoms: _595  and  _598
REMARK  284  A    between atoms: _601  and  _602
REMARK  285  A    between atoms: _602  and  _603
REMARK  286  A    between atoms: _602  and  _605
REMARK  287  A    between atoms: _605  and  _606
REMARK  288  A    between atoms: _609  and  _610
REMARK  289  A    between atoms: _610  and  _611
REMARK  290  A    between atoms: _610  and  _613
REMARK  291  A    between atoms: _616  and  _617
REMARK  292  A    between atoms: _617  and  _618
REMARK  293  A    between atoms: _617  and  _620
REMARK  294  A    between atoms: _620  and  _621
REMARK  295  A    between atoms: _624  and  _625
REMARK  296  A    between atoms: _625  and  _626
REMARK  297  A    between atoms: _625  and  _628
REMARK  298  A    between atoms: _631  and  _632
REMARK  299  A    between atoms: _632  and  _633
REMARK  300  A    between atoms: _632  and  _635
REMARK  301  A    between atoms: _635  and  _636
REMARK  302  A    between atoms: _639  and  _640
REMARK  303  A    between atoms: _640  and  _641
REMARK  304  A    between atoms: _640  and  _643
REMARK  305  A    between atoms: _646  and  _647
REMARK  306  A    between atoms: _647  and  _648
REMARK  307  A    between atoms: _650  and  _651
REMARK  308  A    between atoms: _651  and  _652
REMARK  309  A    between atoms: _651  and  _654
REMARK  310  A    between atoms: _654  and  _655
REMARK  311  A    between atoms: _658  and  _659
REMARK  312  A    between atoms: _659  and  _660
REMARK  313  A    between atoms: _662  and  _663
REMARK  314  A    between atoms: _663  and  _664
REMARK  315  A    between atoms: _663  and  _666
REMARK  316  A    between atoms: _666  and  _667
REMARK  317  A    between atoms: _667  and  _668
REMARK  318  A    between atoms: _670  and  _671
REMARK  319  A    between atoms: _671  and  _672
REMARK  320  A    between atoms: _671  and  _674
REMARK  321  A    between atoms: _677  and  _678
REMARK  322  A    between atoms: _678  and  _679
REMARK  323  A    between atoms: _678  and  _681
REMARK  324  A    between atoms: _681  and  _682
REMARK  325  A    between atoms: _682  and  _683
REMARK  326  A    between atoms: _683  and  _684
REMARK  327  A    between atoms: _686  and  _687
REMARK  328  A    between atoms: _687  and  _688
REMARK  329  A    between atoms: _691  and  _692
REMARK  330  A    between atoms: _692  and  _693
REMARK  331  A    between atoms: _692  and  _695
REMARK  332  A    between atoms: _695  and  _696
REMARK  333  A    between atoms: _699  and  _700
REMARK  334  A    between atoms: _700  and  _701
REMARK  335  A    between atoms: _700  and  _703
REMARK  336  A    between atoms: _703  and  _704
REMARK  337  A    between atoms: _707  and  _708
REMARK  338  A    between atoms: _708  and  _709
REMARK  339  A    between atoms: _708  and  _711
REMARK  340  A    between atoms: _711  and  _712
REMARK  341  A    between atoms: _715  and  _716
REMARK  342  A    between atoms: _716  and  _717
REMARK  343  A    between atoms: _716  and  _719
REMARK  344  A    between atoms: _719  and  _720
REMARK  345  A    between atoms: _723  and  _724
REMARK  346  A    between atoms: _724  and  _725
REMARK  347  A    between atoms: _724  and  _727
REMARK  348  A    between atoms: _727  and  _728
REMARK  349  A    between atoms: _731  and  _732
REMARK  350  A    between atoms: _732  and  _733
REMARK  351  A    between atoms: _732  and  _735
REMARK  352  A    between atoms: _735  and  _736
REMARK  353  A    between atoms: _739  and  _740
REMARK  354  A    between atoms: _740  and  _741
REMARK  355  A    between atoms: _743  and  _744
REMARK  356  A    between atoms: _744  and  _745
REMARK  357  A    between atoms: _744  and  _747
REMARK  358  A    between atoms: _750  and  _751
REMARK  359  A    between atoms: _751  and  _752
REMARK  360  A    between atoms: _751  and  _754
REMARK  361  A    between atoms: _754  and  _755
REMARK  362  A    between atoms: _758  and  _759
REMARK  363  A    between atoms: _759  and  _760
REMARK  364  A    between atoms: _763  and  _764
REMARK  365  A    between atoms: _764  and  _765
REMARK  366  A    between atoms: _764  and  _767
REMARK  367  A    between atoms: _767  and  _768
REMARK  368  A    between atoms: _768  and  _769
REMARK  369  A    between atoms: _769  and  _770
REMARK  370  A    between atoms: _772  and  _773
REMARK  371  A    between atoms: _773  and  _774
REMARK  372  A    between atoms: _773  and  _776
REMARK  373  A    between atoms: _778  and  _779
REMARK  374  A    between atoms: _779  and  _780
REMARK  375  A    between atoms: _782  and  _783
REMARK  376  A    between atoms: _783  and  _784
REMARK  377  A    between atoms: _783  and  _786
REMARK  378  A    between atoms: _789  and  _790
REMARK  379  A    between atoms: _790  and  _791
REMARK  380  A    between atoms: _790  and  _793
REMARK  381  A    between atoms: _793  and  _794
REMARK  382  A    between atoms: _794  and  _795
REMARK  383  A    between atoms: _795  and  _796
REMARK  384  A    between atoms: _798  and  _799
REMARK  385  A    between atoms: _799  and  _800
REMARK  386  A    between atoms: _803  and  _804
REMARK  387  A    between atoms: _804  and  _805
REMARK  388  A    between atoms: _804  and  _807
REMARK  389  A    between atoms: _807  and  _808
REMARK  390  A    between atoms: _814  and  _815
REMARK  391  A    between atoms: _815  and  _816
REMARK  392  A    between atoms: _815  and  _818
REMARK  393  A    between atoms: _818  and  _819
REMARK  394  A    between atoms: _819  and  _820
REMARK  395  A    between atoms: _822  and  _823
REMARK  396  A    between atoms: _823  and  _824
REMARK  397  A    between atoms: _823  and  _826
REMARK  398  A    between atoms: _826  and  _827
REMARK  399  A    between atoms: _827  and  _828
REMARK  400  A    between atoms: _831  and  _832
REMARK  401  A    between atoms: _832  and  _833
REMARK  402  A    between atoms: _836  and  _837
REMARK  403  A    between atoms: _837  and  _838
REMARK  404  A    between atoms: _837  and  _840
REMARK  405  A    between atoms: _840  and  _841
REMARK  406  A    between atoms: _844  and  _845
REMARK  407  A    between atoms: _845  and  _846
REMARK  408  A    between atoms: _845  and  _848
REMARK  409  A    between atoms: _848  and  _849
REMARK  410  A    between atoms: _849  and  _850
REMARK  411  A    between atoms: _853  and  _854
REMARK  412  A    between atoms: _854  and  _855
REMARK  413  A    between atoms: _858  and  _859
REMARK  414  A    between atoms: _859  and  _860
REMARK  415  A    between atoms: _862  and  _863
REMARK  416  A    between atoms: _863  and  _864
REMARK  417  A    between atoms: _867  and  _868
REMARK  418  A    between atoms: _868  and  _869
REMARK  419  A    between atoms: _868  and  _871
REMARK  420  A    between atoms: _871  and  _872
REMARK  421  A    between atoms: _875  and  _876
REMARK  422  A    between atoms: _876  and  _877
REMARK  423  A    between atoms: _876  and  _879
REMARK  424  A    between atoms: _879  and  _880
REMARK  425  A    between atoms: _883  and  _884
REMARK  426  A    between atoms: _884  and  _887
REMARK  427  A    between atoms: _906  and  _907
REMARK  428  A    between atoms: _906  and  _909
REMARK  429  A    between atoms: _909  and  _910
REMARK  430  A    between atoms: _913  and  _914
REMARK  431  A    between atoms: _914  and  _915
REMARK  432  A    between atoms: _917  and  _918
REMARK  433  A    between atoms: _918  and  _919
REMARK  434  A    between atoms: _918  and  _921
REMARK  435  A    between atoms: _921  and  _922
REMARK  436  A    between atoms: _922  and  _923
REMARK  437  A    between atoms: _926  and  _927
REMARK  438  A    between atoms: _927  and  _928
REMARK  439  A    between atoms: _927  and  _930
REMARK  440  A    between atoms: _930  and  _931
REMARK  441  A    between atoms: _937  and  _938
REMARK  442  A    between atoms: _938  and  _939
REMARK  443  A    between atoms: _941  and  _942
REMARK  444  A    between atoms: _942  and  _943
REMARK  445  A    between atoms: _942  and  _945
REMARK  446  A    between atoms: _948  and  _949
REMARK  447  A    between atoms: _949  and  _950
REMARK  448  A    between atoms: _952  and  _953
REMARK  449  A    between atoms: _953  and  _954
REMARK  450  A    between atoms: _953  and  _956
REMARK  451  A    between atoms: _956  and  _957
REMARK  452  A    between atoms: _963  and  _964
REMARK  453  A    between atoms: _964  and  _965
REMARK  454  A    between atoms: _964  and  _967
REMARK  455  A    between atoms: _967  and  _968
REMARK  456  A    between atoms: _975  and  _976
REMARK  457  A    between atoms: _976  and  _977
REMARK  458  A    between atoms: _976  and  _979
REMARK  459  A    between atoms: _981  and  _982
REMARK  460  A    between atoms: _982  and  _983
REMARK  461  A    between atoms: _986  and  _987
REMARK  462  A    between atoms: _987  and  _988
REMARK  463  A    between atoms: _987  and  _990
REMARK  464  A    between atoms: _990  and  _991
REMARK  465  A    between atoms: _998  and  _999
REMARK  466  A    between atoms: _999  and  _1000
REMARK  467  A    between atoms: _999  and  _1002
REMARK  468  A    between atoms: _1002  and  _1003
REMARK  469  A    between atoms: _1006  and  _1007
REMARK  470  A    between atoms: _1007  and  _1008
REMARK  471  A    between atoms: _1007  and  _1010
REMARK  472  A    between atoms: _1013  and  _1014
REMARK  473  A    between atoms: _1014  and  _1015
REMARK  474  A    between atoms: _1018  and  _1019
REMARK  475  A    between atoms: _1019  and  _1020
REMARK  476  A    between atoms: _1019  and  _1022
REMARK  477  A    between atoms: _1023  and  _1024
REMARK  478  A    between atoms: _1027  and  _1028
REMARK  479  A    between atoms: _1028  and  _1029
REMARK  480  A    between atoms: _1028  and  _1031
REMARK  481  A    between atoms: _1031  and  _1032
REMARK  482  A    between atoms: _1032  and  _1033
REMARK  483  A    between atoms: _1033  and  _1034
REMARK  484  A    between atoms: _1036  and  _1037
REMARK  485  A    between atoms: _1037  and  _1038
REMARK  486  A    between atoms: _1037  and  _1040
REMARK  487  A    between atoms: _1043  and  _1044
REMARK  488  A    between atoms: _1044  and  _1045
REMARK  489  A    between atoms: _1044  and  _1047
REMARK  490  A    between atoms: _1050  and  _1051
REMARK  491  A    between atoms: _1051  and  _1052
REMARK  492  A    between atoms: _1051  and  _1054
REMARK  493  A    between atoms: _1057  and  _1058
REMARK  494  A    between atoms: _1058  and  _1059
REMARK  495  A    between atoms: _1058  and  _1061
REMARK  496  A    between atoms: _1061  and  _1062
REMARK  497  A    between atoms: _1065  and  _1066
REMARK  498  A    between atoms: _1066  and  _1067
REMARK  499  A    between atoms: _1066  and  _1069
REMARK  500  A    between atoms: _1072  and  _1073
REMARK  501  A    between atoms: _1073  and  _1074
REMARK  502  A    between atoms: _1073  and  _1076
REMARK  503  A    between atoms: _1076  and  _1077
REMARK  504  A    between atoms: _1077  and  _1078
REMARK  505  A    between atoms: _1078  and  _1079
REMARK  506  A    between atoms: _1081  and  _1082
REMARK  507  A    between atoms: _1082  and  _1083
REMARK  508  A    between atoms: _1082  and  _1085
REMARK  509  A    between atoms: _1085  and  _1086
REMARK  510  A    between atoms: _1091  and  _1092
REMARK  511  A    between atoms: _1092  and  _1093
REMARK  512  A    between atoms: _1092  and  _1095
REMARK  513  A    between atoms: _1095  and  _1096
REMARK  514  A    between atoms: _1099  and  _1100
REMARK  515  A    between atoms: _1100  and  _1101
REMARK  516  A    between atoms: _1100  and  _1103
REMARK  517  A    between atoms: _1103  and  _1104
REMARK  518  A    between atoms: _1107  and  _1108
REMARK  519  A    between atoms: _1108  and  _1111
REMARK  520  A    between atoms: _1111  and  _1112
REMARK  521  A    between atoms: _1125  and  _1127
REMARK  522  A    between atoms: _1134  and  _1135
REMARK  523  A    between atoms: _1134  and  _1137
REMARK  524  A    between atoms: _1137  and  _1138
REMARK  525  A    between atoms: _1138  and  _1139
REMARK  526  A    between atoms: _1142  and  _1143
REMARK  527  A    between atoms: _1143  and  _1144
REMARK  528  A    between atoms: _1143  and  _1146
REMARK  529  A    between atoms: _1146  and  _1147
REMARK  530  A    between atoms: _1154  and  _1155
REMARK  531  A    between atoms: _1155  and  _1156
REMARK  532  A    between atoms: _1159  and  _1160
REMARK  533  A    between atoms: _1160  and  _1161
REMARK  534  A    between atoms: _1160  and  _1163
REMARK  535  A    between atoms: _1163  and  _1164
REMARK  536  A    between atoms: _1173  and  _1174
REMARK  537  A    between atoms: _1174  and  _1175
REMARK  538  A    between atoms: _1174  and  _1177
REMARK  539  A    between atoms: _1177  and  _1178
REMARK  540  A    between atoms: _1178  and  _1179
REMARK  541  A    between atoms: _1182  and  _1183
REMARK  542  A    between atoms: _1183  and  _1184
REMARK  543  A    between atoms: _1183  and  _1186
REMARK  544  A    between atoms: _1188  and  _1189
REMARK  545  A    between atoms: _1189  and  _1190
REMARK  546  A    between atoms: _1189  and  _1192
REMARK  547  A    between atoms: _1194  and  _1195
REMARK  548  A    between atoms: _1195  and  _1196
REMARK  549  A    between atoms: _1199  and  _1200
REMARK  550  A    between atoms: _1200  and  _1201
REMARK  551  A    between atoms: _1203  and  _1204
REMARK  552  A    between atoms: _1204  and  _1205
REMARK  553  A    between atoms: _1207  and  _1208
REMARK  554  A    between atoms: _1208  and  _1209
REMARK  555  A    between atoms: _1208  and  _1211
REMARK  556  A    between atoms: _1213  and  _1214
REMARK  557  A    between atoms: _1214  and  _1215
REMARK  558  A    between atoms: _1214  and  _1217
REMARK  559  A    between atoms: _1217  and  _1218
REMARK  560  A    between atoms: _1224  and  _1225
REMARK  561  A    between atoms: _1225  and  _1226
REMARK  562  A    between atoms: _1225  and  _1228
REMARK  563  A    between atoms: _1231  and  _1232
REMARK  564  A    between atoms: _1232  and  _1233
REMARK  565  A    between atoms: _1232  and  _1235
REMARK  566  A    between atoms: _1238  and  _1239
REMARK  567  A    between atoms: _1239  and  _1240
REMARK  568  A    between atoms: _1239  and  _1242
REMARK  569  A    between atoms: _1242  and  _1243
REMARK  570  A    between atoms: _1243  and  _1244
REMARK  571  A    between atoms: _1244  and  _1245
REMARK  572  A    between atoms: _1249  and  _1250
REMARK  573  A    between atoms: _1250  and  _1251
REMARK  574  A    between atoms: _1250  and  _1253
REMARK  575  A    between atoms: _1256  and  _1257
REMARK  576  A    between atoms: _1257  and  _1258
REMARK  577  A    between atoms: _1257  and  _1260
REMARK  578  A    between atoms: _1260  and  _1261
REMARK  579  A    between atoms: _1264  and  _1265
REMARK  580  A    between atoms: _1265  and  _1266
REMARK  581  A    between atoms: _1265  and  _1268
REMARK  582  A    between atoms: _1271  and  _1272
REMARK  583  A    between atoms: _1272  and  _1273
REMARK  584  A    between atoms: _1275  and  _1276
REMARK  585  A    between atoms: _1276  and  _1277
REMARK  586  A    between atoms: _1276  and  _1279
REMARK  587  A    between atoms: _1279  and  _1280
REMARK  588  A    between atoms: _1280  and  _1281
REMARK  589  A    between atoms: _1285  and  _1286
REMARK  590  A    between atoms: _1291  and  _1293
REMARK  591  A    between atoms: _1298  and  _1299
REMARK  592  A    between atoms: _1299  and  _1301
REMARK  593  A    between atoms: _1300  and  _1301
REMARK  594  A    between atoms: _1304  and  _1305
REMARK  595  A    between atoms: _1305  and  _1306
REMARK  596  A    between atoms: _1308  and  _1309
REMARK  597  A    between atoms: _1309  and  _1310
REMARK  598  A    between atoms: _1309  and  _1312
REMARK  599  A    between atoms: _1312  and  _1313
REMARK  600  A    between atoms: _1313  and  _1314
REMARK  601  A    between atoms: _1314  and  _1315
REMARK  602  A    between atoms: _1319  and  _1320
REMARK  603  A    between atoms: _1320  and  _1321
REMARK  604  A    between atoms: _1323  and  _1324
REMARK  605  A    between atoms: _1324  and  _1325
REMARK  606  A    between atoms: _1324  and  _1327
REMARK  607  A    between atoms: _1330  and  _1331
REMARK  608  A    between atoms: _1331  and  _1332
REMARK  609  A    between atoms: _1331  and  _1334
REMARK  610  A    between atoms: _1334  and  _1335
REMARK  611  A    between atoms: _1335  and  _1336
REMARK  612  A    between atoms: _1336  and  _1337
REMARK  613  A    between atoms: _1339  and  _1340
REMARK  614  A    between atoms: _1340  and  _1341
REMARK  615  A    between atoms: _1340  and  _1343
REMARK  616  A    between atoms: _1346  and  _1347
REMARK  617  A    between atoms: _1347  and  _1348
REMARK  618  A    between atoms: _1347  and  _1350
REMARK  619  A    between atoms: _1350  and  _1351
REMARK  620  A    between atoms: _1354  and  _1355
REMARK  621  A    between atoms: _1355  and  _1356
REMARK  622  A    between atoms: _1355  and  _1358
REMARK  623  A    between atoms: _1358  and  _1359
REMARK  624  A    between atoms: _1362  and  _1363
REMARK  625  A    between atoms: _1363  and  _1364
REMARK  626  A    between atoms: _1363  and  _1366
REMARK  627  A    between atoms: _1366  and  _1367
REMARK  628  A    between atoms: _1372  and  _1373
REMARK  629  A    between atoms: _1373  and  _1374
REMARK  630  A    between atoms: _1373  and  _1376
REMARK  631  A    between atoms: _1376  and  _1377
REMARK  632  A    between atoms: _1380  and  _1381
REMARK  633  A    between atoms: _1381  and  _1382
REMARK  634  A    between atoms: _1381  and  _1384
REMARK  635  A    between atoms: _1384  and  _1385
REMARK  636  A    between atoms: _1385  and  _1386
REMARK  637  A    between atoms: _1386  and  _1387
REMARK  638  A    between atoms: _1389  and  _1390
REMARK  639  A    between atoms: _1390  and  _1391
REMARK  640  A    between atoms: _1390  and  _1393
REMARK  641  A    between atoms: _1393  and  _1394
REMARK  642  A    between atoms: _1394  and  _1395
REMARK  643  A    between atoms: _1398  and  _1399
REMARK  644  A    between atoms: _1399  and  _1400
REMARK  645  A    between atoms: _1399  and  _1402
REMARK  646  A    between atoms: _1402  and  _1403
REMARK  647  A    between atoms: _1406  and  _1407
REMARK  648  A    between atoms: _1407  and  _1408
REMARK  649  A    between atoms: _1407  and  _1410
REMARK  650  A    between atoms: _1410  and  _1411
REMARK  651  A    between atoms: _1411  and  _1412
REMARK  652  A    between atoms: _1415  and  _1416
REMARK  653  A    between atoms: _1416  and  _1417
REMARK  654  A    between atoms: _1416  and  _1419
REMARK  655  A    between atoms: _1422  and  _1423
REMARK  656  A    between atoms: _1423  and  _1424
REMARK  657  A    between atoms: _1423  and  _1426
REMARK  658  A    between atoms: _1426  and  _1427
REMARK  659  A    between atoms: _1427  and  _1428
REMARK  660  A    between atoms: _1431  and  _1432
REMARK  661  A    between atoms: _1432  and  _1433
REMARK  662  A    between atoms: _1432  and  _1435
REMARK  663  A    between atoms: _1435  and  _1436
REMARK  664  A    between atoms: _1443  and  _1444
REMARK  665  A    between atoms: _1444  and  _1445
REMARK  666  A    between atoms: _1444  and  _1447
REMARK  667  A    between atoms: _1447  and  _1448
REMARK  668  A    between atoms: _1451  and  _1452
REMARK  669  A    between atoms: _1452  and  _1453
REMARK  670  A    between atoms: _1452  and  _1455
REMARK  671  A    between atoms: _1455  and  _1456
REMARK  672  A    between atoms: _1456  and  _1457
REMARK  673  A    between atoms: _1460  and  _1461
REMARK  674  A    between atoms: _1461  and  _1462
REMARK  675  A    between atoms: _1461  and  _1464
REMARK  676  A    between atoms: _1464  and  _1465
REMARK  677  A    between atoms: _1465  and  _1466
REMARK  678  A    between atoms: _1469  and  _1470
REMARK  679  A    between atoms: _1470  and  _1471
REMARK  680  A    between atoms: _1470  and  _1473
REMARK  681  A    between atoms: _1473  and  _1474
REMARK  682  A    between atoms: _1474  and  _1475
REMARK  683  A    between atoms: _1475  and  _1476
REMARK  684  A    between atoms: _1480  and  _1481
REMARK  685  A    between atoms: _1481  and  _1482
REMARK  686  A    between atoms: _1481  and  _1484
REMARK  687  A    between atoms: _1484  and  _1485
REMARK  688  A    between atoms: _1485  and  _1486
REMARK  689  A    between atoms: _1486  and  _1487
REMARK  690  A    between atoms: _1491  and  _1492
REMARK  691  A    between atoms: _1492  and  _1493
REMARK  692  A    between atoms: _1492  and  _1495
REMARK  693  A    between atoms: _1495  and  _1496
REMARK  694  A    between atoms: _1499  and  _1500
REMARK  695  A    between atoms: _1500  and  _1501
REMARK  696  A    between atoms: _1500  and  _1503
REMARK  697  A    between atoms: _1503  and  _1504
REMARK  698  A    between atoms: _1504  and  _1505
REMARK  699  A    between atoms: _1505  and  _1506
REMARK  700  A    between atoms: _1508  and  _1509
REMARK  701  A    between atoms: _1509  and  _1510
REMARK  702  A    between atoms: _1509  and  _1512
REMARK  703  A    between atoms: _1512  and  _1513
REMARK  704  A    between atoms: _1513  and  _1514
REMARK  705  A    between atoms: _1517  and  _1518
REMARK  706  A    between atoms: _1518  and  _1519
REMARK  707  A    between atoms: _1518  and  _1521
REMARK  708  A    between atoms: _1521  and  _1522
REMARK  709  A    between atoms: _1525  and  _1526
REMARK  710  A    between atoms: _1526  and  _1527
REMARK  711  A    between atoms: _1526  and  _1529
REMARK  712  A    between atoms: _1532  and  _1533
REMARK  713  A    between atoms: _1533  and  _1534
REMARK  714  A    between atoms: _1533  and  _1536
REMARK  715  A    between atoms: _1536  and  _1537
REMARK  716  A    between atoms: _1537  and  _1538
REMARK  717  A    between atoms: _1538  and  _1539
REMARK  718  A    between atoms: _1541  and  _1542
REMARK  719  A    between atoms: _1542  and  _1543
REMARK  720  A    between atoms: _1542  and  _1545
REMARK  721  A    between atoms: _1545  and  _1546
REMARK  722  A    between atoms: _1546  and  _1547
REMARK  723  A    between atoms: _1547  and  _1548
REMARK  724  A    between atoms: _1550  and  _1551
REMARK  725  A    between atoms: _1551  and  _1552
REMARK  726  A    between atoms: _1551  and  _1554
REMARK  727  A    between atoms: _1554  and  _1555
REMARK  728  A    between atoms: _1560  and  _1561
REMARK  729  A    between atoms: _1561  and  _1562
REMARK  730  A    between atoms: _1561  and  _1564
REMARK  731  A    between atoms: _1566  and  _1567
REMARK  732  A    between atoms: _1567  and  _1568
REMARK  733  A    between atoms: _1567  and  _1570
REMARK  734  A    between atoms: _1570  and  _1571
REMARK  735  A    between atoms: _1571  and  _1572
REMARK  736  A    between atoms: _1575  and  _1576
REMARK  737  A    between atoms: _1576  and  _1577
REMARK  738  A    between atoms: _1576  and  _1579
REMARK  739  A    between atoms: _1579  and  _1580
REMARK  740  A    between atoms: _1586  and  _1587
REMARK  741  A    between atoms: _1587  and  _1588
REMARK  742  A    between atoms: _1587  and  _1590
REMARK  743  A    between atoms: _1590  and  _1591
REMARK  744  A    between atoms: _1594  and  _1595
REMARK  745  A    between atoms: _1595  and  _1596
REMARK  746  A    between atoms: _1598  and  _1599
REMARK  747  A    between atoms: _1599  and  _1600
REMARK  748  A    between atoms: _1599  and  _1602
REMARK  749  A    between atoms: _1602  and  _1603
REMARK  750  A    between atoms: _1611  and  _1612
REMARK  751  A    between atoms: _1617  and  _1618
REMARK  752  A    between atoms: _1618  and  _1619
REMARK  753  A    between atoms: _1618  and  _1621
REMARK  754  A    between atoms: _1621  and  _1622
REMARK  755  A    between atoms: _1625  and  _1626
REMARK  756  A    between atoms: _1626  and  _1627
REMARK  757  A    between atoms: _1626  and  _1629
REMARK  758  A    between atoms: _1632  and  _1633
REMARK  759  A    between atoms: _1633  and  _1634
REMARK  760  A    between atoms: _1633  and  _1636
REMARK  761  A    between atoms: _1636  and  _1637
REMARK  762  A    between atoms: _1640  and  _1641
REMARK  763  A    between atoms: _1641  and  _1642
REMARK  764  A    between atoms: _1641  and  _1644
REMARK  765  A    between atoms: _1644  and  _1645
REMARK  766  A    between atoms: _1651  and  _1652
REMARK  767  A    between atoms: _1652  and  _1653
REMARK  768  A    between atoms: _1652  and  _1655
REMARK  769  A    between atoms: _1658  and  _1659
REMARK  770  A    between atoms: _1659  and  _1660
REMARK  771  A    between atoms: _1659  and  _1662
REMARK  772  A    between atoms: _1662  and  _1663
REMARK  773  A    between atoms: _1663  and  _1664
REMARK  774  A    between atoms: _1667  and  _1668
REMARK  775  A    between atoms: _1668  and  _1669
REMARK  776  A    between atoms: _1668  and  _1671
REMARK  777  A    between atoms: _1671  and  _1672
REMARK  778  A    between atoms: _1672  and  _1673
REMARK  779  A    between atoms: _1673  and  _1674
REMARK                            x       y       z     vdW  Elec       q    Type
REMARK                         _______ _______ _______ _____ _____    ______ ____
ROOT
ATOM      1  S   UNL     1      -4.189  25.639  17.534  0.00  0.00    -0.092 S 
ENDROOT
BRANCH   1   2
ATOM      2  S   UNL     1      -4.860  24.852  18.334  0.00  0.00    -0.129 S 
ATOM      3  C   UNL     1      -5.133  26.356  19.203  0.00  0.00    +0.070 C 
ATOM      4  C   UNL     1      -4.962  24.611  18.830  0.00  0.00    +0.070 C 
ENDBRANCH   1   2
BRANCH   1   5
ATOM      5  C   UNL     1      -5.522  25.715  16.308  0.00  0.00    +0.068 C 
BRANCH   5   7
ATOM      6  C   UNL     1      -6.808  25.094  16.792  0.00  0.00    +0.001 C 
ATOM      7  C   UNL     1      -5.651  25.232  16.757  0.00  0.00    +0.012 C 
ENDBRANCH   5   7
ENDBRANCH   1   5
TORSDOF 3
