REMARK  Name = /Users/mlugowska/PhD/ML_residence_time_prediction/protein_files/5NYI_protein.pdb
REMARK  798 active torsions:
REMARK  status: ('A' for Active; 'I' for Inactive)
REMARK    1  A    between atoms: _2  and  _3
REMARK    2  A    between atoms: _2  and  _5
REMARK    3  A    between atoms: _5  and  _6
REMARK    4  A    between atoms: _6  and  _7
REMARK    5  A    between atoms: _10  and  _11
REMARK    6  A    between atoms: _11  and  _12
REMARK    7  A    between atoms: _11  and  _14
REMARK    8  A    between atoms: _17  and  _18
REMARK    9  A    between atoms: _18  and  _19
REMARK   10  A    between atoms: _18  and  _21
REMARK   11  A    between atoms: _21  and  _22
REMARK   12  A    between atoms: _22  and  _23
REMARK   13  A    between atoms: _26  and  _27
REMARK   14  A    between atoms: _27  and  _28
REMARK   15  A    between atoms: _27  and  _30
REMARK   16  A    between atoms: _33  and  _34
REMARK   17  A    between atoms: _34  and  _35
REMARK   18  A    between atoms: _34  and  _37
REMARK   19  A    between atoms: _37  and  _38
REMARK   20  A    between atoms: _44  and  _45
REMARK   21  A    between atoms: _45  and  _46
REMARK   22  A    between atoms: _49  and  _50
REMARK   23  A    between atoms: _50  and  _51
REMARK   24  A    between atoms: _50  and  _53
REMARK   25  A    between atoms: _53  and  _54
REMARK   26  A    between atoms: _60  and  _61
REMARK   27  A    between atoms: _61  and  _62
REMARK   28  A    between atoms: _61  and  _64
REMARK   29  A    between atoms: _64  and  _65
REMARK   30  A    between atoms: _65  and  _66
REMARK   31  A    between atoms: _69  and  _70
REMARK   32  A    between atoms: _70  and  _71
REMARK   33  A    between atoms: _74  and  _75
REMARK   34  A    between atoms: _75  and  _76
REMARK   35  A    between atoms: _75  and  _78
REMARK   36  A    between atoms: _78  and  _79
REMARK   37  A    between atoms: _79  and  _80
REMARK   38  A    between atoms: _83  and  _84
REMARK   39  A    between atoms: _84  and  _86
REMARK   40  A    between atoms: _88  and  _90
REMARK   41  A    between atoms: _96  and  _97
REMARK   42  A    between atoms: _97  and  _98
REMARK   43  A    between atoms: _101  and  _102
REMARK   44  A    between atoms: _102  and  _103
REMARK   45  A    between atoms: _102  and  _105
REMARK   46  A    between atoms: _105  and  _106
REMARK   47  A    between atoms: _106  and  _107
REMARK   48  A    between atoms: _110  and  _111
REMARK   49  A    between atoms: _111  and  _112
REMARK   50  A    between atoms: _111  and  _114
REMARK   51  A    between atoms: _114  and  _115
REMARK   52  A    between atoms: _118  and  _119
REMARK   53  A    between atoms: _119  and  _120
REMARK   54  A    between atoms: _119  and  _122
REMARK   55  A    between atoms: _122  and  _123
REMARK   56  A    between atoms: _123  and  _124
REMARK   57  A    between atoms: _126  and  _127
REMARK   58  A    between atoms: _127  and  _128
REMARK   59  A    between atoms: _127  and  _130
REMARK   60  A    between atoms: _132  and  _133
REMARK   61  A    between atoms: _133  and  _134
REMARK   62  A    between atoms: _133  and  _136
REMARK   63  A    between atoms: _136  and  _137
REMARK   64  A    between atoms: _140  and  _141
REMARK   65  A    between atoms: _141  and  _142
REMARK   66  A    between atoms: _141  and  _144
REMARK   67  A    between atoms: _144  and  _145
REMARK   68  A    between atoms: _148  and  _149
REMARK   69  A    between atoms: _149  and  _150
REMARK   70  A    between atoms: _149  and  _152
REMARK   71  A    between atoms: _152  and  _153
REMARK   72  A    between atoms: _156  and  _157
REMARK   73  A    between atoms: _157  and  _158
REMARK   74  A    between atoms: _157  and  _160
REMARK   75  A    between atoms: _160  and  _161
REMARK   76  A    between atoms: _164  and  _165
REMARK   77  A    between atoms: _165  and  _166
REMARK   78  A    between atoms: _165  and  _168
REMARK   79  A    between atoms: _171  and  _172
REMARK   80  A    between atoms: _172  and  _173
REMARK   81  A    between atoms: _172  and  _175
REMARK   82  A    between atoms: _175  and  _176
REMARK   83  A    between atoms: _182  and  _183
REMARK   84  A    between atoms: _183  and  _184
REMARK   85  A    between atoms: _183  and  _186
REMARK   86  A    between atoms: _186  and  _187
REMARK   87  A    between atoms: _194  and  _195
REMARK   88  A    between atoms: _195  and  _196
REMARK   89  A    between atoms: _195  and  _198
REMARK   90  A    between atoms: _200  and  _201
REMARK   91  A    between atoms: _201  and  _202
REMARK   92  A    between atoms: _201  and  _204
REMARK   93  A    between atoms: _204  and  _205
REMARK   94  A    between atoms: _208  and  _209
REMARK   95  A    between atoms: _209  and  _210
REMARK   96  A    between atoms: _209  and  _212
REMARK   97  A    between atoms: _212  and  _213
REMARK   98  A    between atoms: _213  and  _214
REMARK   99  A    between atoms: _214  and  _215
REMARK  100  A    between atoms: _217  and  _218
REMARK  101  A    between atoms: _218  and  _219
REMARK  102  A    between atoms: _218  and  _221
REMARK  103  A    between atoms: _221  and  _222
REMARK  104  A    between atoms: _222  and  _223
REMARK  105  A    between atoms: _226  and  _227
REMARK  106  A    between atoms: _227  and  _228
REMARK  107  A    between atoms: _227  and  _230
REMARK  108  A    between atoms: _230  and  _231
REMARK  109  A    between atoms: _234  and  _235
REMARK  110  A    between atoms: _235  and  _236
REMARK  111  A    between atoms: _235  and  _238
REMARK  112  A    between atoms: _238  and  _239
REMARK  113  A    between atoms: _245  and  _246
REMARK  114  A    between atoms: _246  and  _247
REMARK  115  A    between atoms: _246  and  _249
REMARK  116  A    between atoms: _249  and  _250
REMARK  117  A    between atoms: _253  and  _254
REMARK  118  A    between atoms: _254  and  _255
REMARK  119  A    between atoms: _254  and  _257
REMARK  120  A    between atoms: _257  and  _258
REMARK  121  A    between atoms: _258  and  _259
REMARK  122  A    between atoms: _259  and  _260
REMARK  123  A    between atoms: _264  and  _265
REMARK  124  A    between atoms: _265  and  _266
REMARK  125  A    between atoms: _265  and  _268
REMARK  126  A    between atoms: _268  and  _269
REMARK  127  A    between atoms: _269  and  _270
REMARK  128  A    between atoms: _273  and  _274
REMARK  129  A    between atoms: _274  and  _275
REMARK  130  A    between atoms: _274  and  _277
REMARK  131  A    between atoms: _277  and  _278
REMARK  132  A    between atoms: _281  and  _282
REMARK  133  A    between atoms: _282  and  _283
REMARK  134  A    between atoms: _282  and  _285
REMARK  135  A    between atoms: _285  and  _286
REMARK  136  A    between atoms: _289  and  _290
REMARK  137  A    between atoms: _290  and  _295
REMARK  138  A    between atoms: _298  and  _299
REMARK  139  A    between atoms: _299  and  _300
REMARK  140  A    between atoms: _299  and  _302
REMARK  141  A    between atoms: _302  and  _303
REMARK  142  A    between atoms: _306  and  _307
REMARK  143  A    between atoms: _307  and  _308
REMARK  144  A    between atoms: _307  and  _310
REMARK  145  A    between atoms: _312  and  _313
REMARK  146  A    between atoms: _313  and  _314
REMARK  147  A    between atoms: _313  and  _316
REMARK  148  A    between atoms: _318  and  _319
REMARK  149  A    between atoms: _319  and  _320
REMARK  150  A    between atoms: _319  and  _322
REMARK  151  A    between atoms: _322  and  _323
REMARK  152  A    between atoms: _326  and  _327
REMARK  153  A    between atoms: _327  and  _328
REMARK  154  A    between atoms: _331  and  _332
REMARK  155  A    between atoms: _332  and  _333
REMARK  156  A    between atoms: _332  and  _335
REMARK  157  A    between atoms: _335  and  _336
REMARK  158  A    between atoms: _339  and  _340
REMARK  159  A    between atoms: _340  and  _341
REMARK  160  A    between atoms: _340  and  _343
REMARK  161  A    between atoms: _343  and  _344
REMARK  162  A    between atoms: _347  and  _348
REMARK  163  A    between atoms: _348  and  _349
REMARK  164  A    between atoms: _348  and  _351
REMARK  165  A    between atoms: _351  and  _352
REMARK  166  A    between atoms: _352  and  _353
REMARK  167  A    between atoms: _353  and  _354
REMARK  168  A    between atoms: _356  and  _357
REMARK  169  A    between atoms: _357  and  _358
REMARK  170  A    between atoms: _357  and  _360
REMARK  171  A    between atoms: _360  and  _361
REMARK  172  A    between atoms: _364  and  _365
REMARK  173  A    between atoms: _365  and  _366
REMARK  174  A    between atoms: _365  and  _368
REMARK  175  A    between atoms: _368  and  _369
REMARK  176  A    between atoms: _369  and  _370
REMARK  177  A    between atoms: _370  and  _371
REMARK  178  A    between atoms: _375  and  _376
REMARK  179  A    between atoms: _376  and  _377
REMARK  180  A    between atoms: _376  and  _379
REMARK  181  A    between atoms: _379  and  _380
REMARK  182  A    between atoms: _387  and  _388
REMARK  183  A    between atoms: _388  and  _389
REMARK  184  A    between atoms: _388  and  _391
REMARK  185  A    between atoms: _391  and  _392
REMARK  186  A    between atoms: _392  and  _393
REMARK  187  A    between atoms: _396  and  _397
REMARK  188  A    between atoms: _397  and  _398
REMARK  189  A    between atoms: _397  and  _400
REMARK  190  A    between atoms: _403  and  _404
REMARK  191  A    between atoms: _404  and  _405
REMARK  192  A    between atoms: _404  and  _407
REMARK  193  A    between atoms: _407  and  _408
REMARK  194  A    between atoms: _411  and  _412
REMARK  195  A    between atoms: _412  and  _413
REMARK  196  A    between atoms: _412  and  _415
REMARK  197  A    between atoms: _418  and  _419
REMARK  198  A    between atoms: _419  and  _420
REMARK  199  A    between atoms: _419  and  _422
REMARK  200  A    between atoms: _422  and  _423
REMARK  201  A    between atoms: _427  and  _428
REMARK  202  A    between atoms: _433  and  _434
REMARK  203  A    between atoms: _434  and  _435
REMARK  204  A    between atoms: _434  and  _437
REMARK  205  A    between atoms: _439  and  _440
REMARK  206  A    between atoms: _440  and  _441
REMARK  207  A    between atoms: _440  and  _443
REMARK  208  A    between atoms: _443  and  _444
REMARK  209  A    between atoms: _444  and  _445
REMARK  210  A    between atoms: _445  and  _446
REMARK  211  A    between atoms: _448  and  _449
REMARK  212  A    between atoms: _449  and  _450
REMARK  213  A    between atoms: _449  and  _452
REMARK  214  A    between atoms: _452  and  _453
REMARK  215  A    between atoms: _456  and  _457
REMARK  216  A    between atoms: _457  and  _458
REMARK  217  A    between atoms: _457  and  _460
REMARK  218  A    between atoms: _460  and  _461
REMARK  219  A    between atoms: _464  and  _465
REMARK  220  A    between atoms: _465  and  _466
REMARK  221  A    between atoms: _465  and  _468
REMARK  222  A    between atoms: _470  and  _471
REMARK  223  A    between atoms: _471  and  _472
REMARK  224  A    between atoms: _474  and  _475
REMARK  225  A    between atoms: _475  and  _476
REMARK  226  A    between atoms: _475  and  _478
REMARK  227  A    between atoms: _478  and  _479
REMARK  228  A    between atoms: _479  and  _480
REMARK  229  A    between atoms: _480  and  _481
REMARK  230  A    between atoms: _483  and  _484
REMARK  231  A    between atoms: _484  and  _485
REMARK  232  A    between atoms: _484  and  _487
REMARK  233  A    between atoms: _487  and  _488
REMARK  234  A    between atoms: _488  and  _489
REMARK  235  A    between atoms: _492  and  _493
REMARK  236  A    between atoms: _493  and  _494
REMARK  237  A    between atoms: _493  and  _496
REMARK  238  A    between atoms: _496  and  _497
REMARK  239  A    between atoms: _500  and  _501
REMARK  240  A    between atoms: _501  and  _502
REMARK  241  A    between atoms: _501  and  _504
REMARK  242  A    between atoms: _504  and  _505
REMARK  243  A    between atoms: _510  and  _511
REMARK  244  A    between atoms: _511  and  _512
REMARK  245  A    between atoms: _511  and  _514
REMARK  246  A    between atoms: _514  and  _515
REMARK  247  A    between atoms: _518  and  _519
REMARK  248  A    between atoms: _519  and  _520
REMARK  249  A    between atoms: _519  and  _522
REMARK  250  A    between atoms: _522  and  _523
REMARK  251  A    between atoms: _526  and  _527
REMARK  252  A    between atoms: _527  and  _528
REMARK  253  A    between atoms: _527  and  _530
REMARK  254  A    between atoms: _530  and  _531
REMARK  255  A    between atoms: _534  and  _535
REMARK  256  A    between atoms: _535  and  _536
REMARK  257  A    between atoms: _535  and  _538
REMARK  258  A    between atoms: _538  and  _539
REMARK  259  A    between atoms: _543  and  _544
REMARK  260  A    between atoms: _549  and  _550
REMARK  261  A    between atoms: _550  and  _551
REMARK  262  A    between atoms: _550  and  _553
REMARK  263  A    between atoms: _553  and  _554
REMARK  264  A    between atoms: _557  and  _558
REMARK  265  A    between atoms: _558  and  _559
REMARK  266  A    between atoms: _558  and  _561
REMARK  267  A    between atoms: _561  and  _562
REMARK  268  A    between atoms: _562  and  _563
REMARK  269  A    between atoms: _563  and  _564
REMARK  270  A    between atoms: _566  and  _567
REMARK  271  A    between atoms: _567  and  _568
REMARK  272  A    between atoms: _567  and  _570
REMARK  273  A    between atoms: _570  and  _571
REMARK  274  A    between atoms: _571  and  _572
REMARK  275  A    between atoms: _575  and  _576
REMARK  276  A    between atoms: _576  and  _577
REMARK  277  A    between atoms: _576  and  _579
REMARK  278  A    between atoms: _579  and  _580
REMARK  279  A    between atoms: _583  and  _584
REMARK  280  A    between atoms: _584  and  _585
REMARK  281  A    between atoms: _584  and  _587
REMARK  282  A    between atoms: _587  and  _588
REMARK  283  A    between atoms: _588  and  _589
REMARK  284  A    between atoms: _589  and  _590
REMARK  285  A    between atoms: _594  and  _595
REMARK  286  A    between atoms: _595  and  _596
REMARK  287  A    between atoms: _595  and  _598
REMARK  288  A    between atoms: _601  and  _602
REMARK  289  A    between atoms: _602  and  _603
REMARK  290  A    between atoms: _602  and  _605
REMARK  291  A    between atoms: _605  and  _606
REMARK  292  A    between atoms: _609  and  _610
REMARK  293  A    between atoms: _610  and  _611
REMARK  294  A    between atoms: _610  and  _613
REMARK  295  A    between atoms: _616  and  _617
REMARK  296  A    between atoms: _617  and  _618
REMARK  297  A    between atoms: _617  and  _620
REMARK  298  A    between atoms: _620  and  _621
REMARK  299  A    between atoms: _624  and  _625
REMARK  300  A    between atoms: _625  and  _626
REMARK  301  A    between atoms: _625  and  _628
REMARK  302  A    between atoms: _631  and  _632
REMARK  303  A    between atoms: _632  and  _633
REMARK  304  A    between atoms: _632  and  _635
REMARK  305  A    between atoms: _635  and  _636
REMARK  306  A    between atoms: _639  and  _640
REMARK  307  A    between atoms: _640  and  _641
REMARK  308  A    between atoms: _640  and  _643
REMARK  309  A    between atoms: _646  and  _647
REMARK  310  A    between atoms: _647  and  _648
REMARK  311  A    between atoms: _650  and  _651
REMARK  312  A    between atoms: _651  and  _652
REMARK  313  A    between atoms: _651  and  _654
REMARK  314  A    between atoms: _654  and  _655
REMARK  315  A    between atoms: _658  and  _659
REMARK  316  A    between atoms: _659  and  _660
REMARK  317  A    between atoms: _662  and  _663
REMARK  318  A    between atoms: _663  and  _664
REMARK  319  A    between atoms: _663  and  _666
REMARK  320  A    between atoms: _666  and  _667
REMARK  321  A    between atoms: _667  and  _668
REMARK  322  A    between atoms: _670  and  _671
REMARK  323  A    between atoms: _671  and  _672
REMARK  324  A    between atoms: _671  and  _674
REMARK  325  A    between atoms: _677  and  _678
REMARK  326  A    between atoms: _678  and  _679
REMARK  327  A    between atoms: _678  and  _681
REMARK  328  A    between atoms: _681  and  _682
REMARK  329  A    between atoms: _682  and  _683
REMARK  330  A    between atoms: _683  and  _684
REMARK  331  A    between atoms: _686  and  _687
REMARK  332  A    between atoms: _687  and  _688
REMARK  333  A    between atoms: _691  and  _692
REMARK  334  A    between atoms: _692  and  _693
REMARK  335  A    between atoms: _692  and  _695
REMARK  336  A    between atoms: _695  and  _696
REMARK  337  A    between atoms: _699  and  _700
REMARK  338  A    between atoms: _700  and  _701
REMARK  339  A    between atoms: _700  and  _703
REMARK  340  A    between atoms: _703  and  _704
REMARK  341  A    between atoms: _707  and  _708
REMARK  342  A    between atoms: _708  and  _709
REMARK  343  A    between atoms: _708  and  _711
REMARK  344  A    between atoms: _711  and  _712
REMARK  345  A    between atoms: _715  and  _716
REMARK  346  A    between atoms: _716  and  _717
REMARK  347  A    between atoms: _716  and  _719
REMARK  348  A    between atoms: _719  and  _720
REMARK  349  A    between atoms: _723  and  _724
REMARK  350  A    between atoms: _724  and  _725
REMARK  351  A    between atoms: _724  and  _727
REMARK  352  A    between atoms: _727  and  _728
REMARK  353  A    between atoms: _733  and  _734
REMARK  354  A    between atoms: _733  and  _736
REMARK  355  A    between atoms: _736  and  _739
REMARK  356  A    between atoms: _739  and  _741
REMARK  357  A    between atoms: _741  and  _742
REMARK  358  A    between atoms: _744  and  _745
REMARK  359  A    between atoms: _745  and  _746
REMARK  360  A    between atoms: _748  and  _749
REMARK  361  A    between atoms: _749  and  _750
REMARK  362  A    between atoms: _749  and  _752
REMARK  363  A    between atoms: _755  and  _756
REMARK  364  A    between atoms: _756  and  _757
REMARK  365  A    between atoms: _756  and  _759
REMARK  366  A    between atoms: _759  and  _760
REMARK  367  A    between atoms: _763  and  _764
REMARK  368  A    between atoms: _764  and  _765
REMARK  369  A    between atoms: _768  and  _769
REMARK  370  A    between atoms: _769  and  _770
REMARK  371  A    between atoms: _769  and  _772
REMARK  372  A    between atoms: _772  and  _773
REMARK  373  A    between atoms: _773  and  _774
REMARK  374  A    between atoms: _774  and  _775
REMARK  375  A    between atoms: _777  and  _778
REMARK  376  A    between atoms: _778  and  _779
REMARK  377  A    between atoms: _778  and  _781
REMARK  378  A    between atoms: _783  and  _784
REMARK  379  A    between atoms: _784  and  _785
REMARK  380  A    between atoms: _787  and  _788
REMARK  381  A    between atoms: _788  and  _789
REMARK  382  A    between atoms: _788  and  _791
REMARK  383  A    between atoms: _794  and  _795
REMARK  384  A    between atoms: _795  and  _796
REMARK  385  A    between atoms: _795  and  _798
REMARK  386  A    between atoms: _798  and  _799
REMARK  387  A    between atoms: _799  and  _800
REMARK  388  A    between atoms: _800  and  _801
REMARK  389  A    between atoms: _803  and  _804
REMARK  390  A    between atoms: _804  and  _805
REMARK  391  A    between atoms: _808  and  _809
REMARK  392  A    between atoms: _809  and  _810
REMARK  393  A    between atoms: _809  and  _812
REMARK  394  A    between atoms: _812  and  _813
REMARK  395  A    between atoms: _819  and  _820
REMARK  396  A    between atoms: _820  and  _821
REMARK  397  A    between atoms: _820  and  _823
REMARK  398  A    between atoms: _823  and  _824
REMARK  399  A    between atoms: _824  and  _825
REMARK  400  A    between atoms: _827  and  _828
REMARK  401  A    between atoms: _828  and  _829
REMARK  402  A    between atoms: _828  and  _831
REMARK  403  A    between atoms: _831  and  _832
REMARK  404  A    between atoms: _832  and  _833
REMARK  405  A    between atoms: _836  and  _837
REMARK  406  A    between atoms: _837  and  _838
REMARK  407  A    between atoms: _841  and  _842
REMARK  408  A    between atoms: _842  and  _843
REMARK  409  A    between atoms: _842  and  _845
REMARK  410  A    between atoms: _845  and  _846
REMARK  411  A    between atoms: _849  and  _850
REMARK  412  A    between atoms: _850  and  _851
REMARK  413  A    between atoms: _850  and  _853
REMARK  414  A    between atoms: _853  and  _854
REMARK  415  A    between atoms: _854  and  _855
REMARK  416  A    between atoms: _858  and  _859
REMARK  417  A    between atoms: _859  and  _860
REMARK  418  A    between atoms: _863  and  _864
REMARK  419  A    between atoms: _864  and  _865
REMARK  420  A    between atoms: _867  and  _868
REMARK  421  A    between atoms: _868  and  _869
REMARK  422  A    between atoms: _872  and  _873
REMARK  423  A    between atoms: _873  and  _874
REMARK  424  A    between atoms: _873  and  _876
REMARK  425  A    between atoms: _876  and  _877
REMARK  426  A    between atoms: _880  and  _881
REMARK  427  A    between atoms: _881  and  _882
REMARK  428  A    between atoms: _881  and  _884
REMARK  429  A    between atoms: _884  and  _885
REMARK  430  A    between atoms: _888  and  _889
REMARK  431  A    between atoms: _889  and  _890
REMARK  432  A    between atoms: _889  and  _892
REMARK  433  A    between atoms: _894  and  _895
REMARK  434  A    between atoms: _895  and  _896
REMARK  435  A    between atoms: _895  and  _898
REMARK  436  A    between atoms: _898  and  _899
REMARK  437  A    between atoms: _899  and  _900
REMARK  438  A    between atoms: _902  and  _903
REMARK  439  A    between atoms: _903  and  _904
REMARK  440  A    between atoms: _903  and  _906
REMARK  441  A    between atoms: _906  and  _907
REMARK  442  A    between atoms: _910  and  _911
REMARK  443  A    between atoms: _911  and  _912
REMARK  444  A    between atoms: _914  and  _915
REMARK  445  A    between atoms: _915  and  _916
REMARK  446  A    between atoms: _915  and  _918
REMARK  447  A    between atoms: _918  and  _919
REMARK  448  A    between atoms: _919  and  _920
REMARK  449  A    between atoms: _923  and  _924
REMARK  450  A    between atoms: _924  and  _925
REMARK  451  A    between atoms: _924  and  _927
REMARK  452  A    between atoms: _927  and  _928
REMARK  453  A    between atoms: _934  and  _935
REMARK  454  A    between atoms: _935  and  _936
REMARK  455  A    between atoms: _938  and  _939
REMARK  456  A    between atoms: _939  and  _940
REMARK  457  A    between atoms: _939  and  _942
REMARK  458  A    between atoms: _945  and  _946
REMARK  459  A    between atoms: _946  and  _947
REMARK  460  A    between atoms: _949  and  _950
REMARK  461  A    between atoms: _950  and  _951
REMARK  462  A    between atoms: _950  and  _953
REMARK  463  A    between atoms: _953  and  _954
REMARK  464  A    between atoms: _960  and  _961
REMARK  465  A    between atoms: _961  and  _962
REMARK  466  A    between atoms: _961  and  _964
REMARK  467  A    between atoms: _964  and  _965
REMARK  468  A    between atoms: _972  and  _973
REMARK  469  A    between atoms: _973  and  _974
REMARK  470  A    between atoms: _973  and  _976
REMARK  471  A    between atoms: _978  and  _979
REMARK  472  A    between atoms: _979  and  _980
REMARK  473  A    between atoms: _983  and  _984
REMARK  474  A    between atoms: _984  and  _985
REMARK  475  A    between atoms: _984  and  _987
REMARK  476  A    between atoms: _987  and  _988
REMARK  477  A    between atoms: _995  and  _996
REMARK  478  A    between atoms: _996  and  _997
REMARK  479  A    between atoms: _996  and  _999
REMARK  480  A    between atoms: _999  and  _1000
REMARK  481  A    between atoms: _1003  and  _1004
REMARK  482  A    between atoms: _1004  and  _1005
REMARK  483  A    between atoms: _1004  and  _1007
REMARK  484  A    between atoms: _1010  and  _1011
REMARK  485  A    between atoms: _1011  and  _1012
REMARK  486  A    between atoms: _1015  and  _1016
REMARK  487  A    between atoms: _1016  and  _1017
REMARK  488  A    between atoms: _1016  and  _1019
REMARK  489  A    between atoms: _1019  and  _1020
REMARK  490  A    between atoms: _1020  and  _1021
REMARK  491  A    between atoms: _1024  and  _1025
REMARK  492  A    between atoms: _1025  and  _1026
REMARK  493  A    between atoms: _1025  and  _1028
REMARK  494  A    between atoms: _1028  and  _1029
REMARK  495  A    between atoms: _1029  and  _1030
REMARK  496  A    between atoms: _1030  and  _1031
REMARK  497  A    between atoms: _1033  and  _1034
REMARK  498  A    between atoms: _1034  and  _1035
REMARK  499  A    between atoms: _1034  and  _1037
REMARK  500  A    between atoms: _1040  and  _1041
REMARK  501  A    between atoms: _1041  and  _1042
REMARK  502  A    between atoms: _1041  and  _1044
REMARK  503  A    between atoms: _1047  and  _1048
REMARK  504  A    between atoms: _1048  and  _1049
REMARK  505  A    between atoms: _1048  and  _1051
REMARK  506  A    between atoms: _1054  and  _1055
REMARK  507  A    between atoms: _1055  and  _1056
REMARK  508  A    between atoms: _1055  and  _1058
REMARK  509  A    between atoms: _1058  and  _1059
REMARK  510  A    between atoms: _1062  and  _1063
REMARK  511  A    between atoms: _1063  and  _1064
REMARK  512  A    between atoms: _1063  and  _1066
REMARK  513  A    between atoms: _1069  and  _1070
REMARK  514  A    between atoms: _1070  and  _1071
REMARK  515  A    between atoms: _1070  and  _1073
REMARK  516  A    between atoms: _1073  and  _1074
REMARK  517  A    between atoms: _1074  and  _1075
REMARK  518  A    between atoms: _1075  and  _1076
REMARK  519  A    between atoms: _1078  and  _1079
REMARK  520  A    between atoms: _1079  and  _1080
REMARK  521  A    between atoms: _1079  and  _1082
REMARK  522  A    between atoms: _1082  and  _1083
REMARK  523  A    between atoms: _1088  and  _1089
REMARK  524  A    between atoms: _1089  and  _1090
REMARK  525  A    between atoms: _1089  and  _1092
REMARK  526  A    between atoms: _1092  and  _1093
REMARK  527  A    between atoms: _1096  and  _1097
REMARK  528  A    between atoms: _1097  and  _1098
REMARK  529  A    between atoms: _1097  and  _1100
REMARK  530  A    between atoms: _1100  and  _1101
REMARK  531  A    between atoms: _1104  and  _1105
REMARK  532  A    between atoms: _1105  and  _1106
REMARK  533  A    between atoms: _1105  and  _1108
REMARK  534  A    between atoms: _1108  and  _1109
REMARK  535  A    between atoms: _1112  and  _1113
REMARK  536  A    between atoms: _1113  and  _1114
REMARK  537  A    between atoms: _1113  and  _1116
REMARK  538  A    between atoms: _1116  and  _1117
REMARK  539  A    between atoms: _1117  and  _1118
REMARK  540  A    between atoms: _1121  and  _1122
REMARK  541  A    between atoms: _1122  and  _1123
REMARK  542  A    between atoms: _1122  and  _1125
REMARK  543  A    between atoms: _1125  and  _1126
REMARK  544  A    between atoms: _1126  and  _1127
REMARK  545  A    between atoms: _1130  and  _1131
REMARK  546  A    between atoms: _1131  and  _1132
REMARK  547  A    between atoms: _1131  and  _1134
REMARK  548  A    between atoms: _1134  and  _1135
REMARK  549  A    between atoms: _1142  and  _1143
REMARK  550  A    between atoms: _1143  and  _1144
REMARK  551  A    between atoms: _1147  and  _1148
REMARK  552  A    between atoms: _1148  and  _1149
REMARK  553  A    between atoms: _1148  and  _1151
REMARK  554  A    between atoms: _1151  and  _1152
REMARK  555  A    between atoms: _1161  and  _1162
REMARK  556  A    between atoms: _1162  and  _1163
REMARK  557  A    between atoms: _1162  and  _1165
REMARK  558  A    between atoms: _1165  and  _1166
REMARK  559  A    between atoms: _1166  and  _1167
REMARK  560  A    between atoms: _1170  and  _1171
REMARK  561  A    between atoms: _1171  and  _1172
REMARK  562  A    between atoms: _1171  and  _1174
REMARK  563  A    between atoms: _1176  and  _1177
REMARK  564  A    between atoms: _1177  and  _1178
REMARK  565  A    between atoms: _1177  and  _1180
REMARK  566  A    between atoms: _1182  and  _1183
REMARK  567  A    between atoms: _1183  and  _1184
REMARK  568  A    between atoms: _1187  and  _1188
REMARK  569  A    between atoms: _1188  and  _1189
REMARK  570  A    between atoms: _1191  and  _1192
REMARK  571  A    between atoms: _1192  and  _1193
REMARK  572  A    between atoms: _1195  and  _1196
REMARK  573  A    between atoms: _1196  and  _1197
REMARK  574  A    between atoms: _1196  and  _1199
REMARK  575  A    between atoms: _1201  and  _1202
REMARK  576  A    between atoms: _1202  and  _1203
REMARK  577  A    between atoms: _1202  and  _1205
REMARK  578  A    between atoms: _1205  and  _1206
REMARK  579  A    between atoms: _1212  and  _1213
REMARK  580  A    between atoms: _1213  and  _1214
REMARK  581  A    between atoms: _1213  and  _1216
REMARK  582  A    between atoms: _1219  and  _1220
REMARK  583  A    between atoms: _1220  and  _1221
REMARK  584  A    between atoms: _1220  and  _1223
REMARK  585  A    between atoms: _1226  and  _1227
REMARK  586  A    between atoms: _1227  and  _1228
REMARK  587  A    between atoms: _1227  and  _1230
REMARK  588  A    between atoms: _1230  and  _1231
REMARK  589  A    between atoms: _1231  and  _1232
REMARK  590  A    between atoms: _1232  and  _1233
REMARK  591  A    between atoms: _1237  and  _1238
REMARK  592  A    between atoms: _1238  and  _1239
REMARK  593  A    between atoms: _1238  and  _1241
REMARK  594  A    between atoms: _1244  and  _1245
REMARK  595  A    between atoms: _1245  and  _1246
REMARK  596  A    between atoms: _1245  and  _1248
REMARK  597  A    between atoms: _1248  and  _1249
REMARK  598  A    between atoms: _1252  and  _1253
REMARK  599  A    between atoms: _1253  and  _1254
REMARK  600  A    between atoms: _1253  and  _1256
REMARK  601  A    between atoms: _1259  and  _1260
REMARK  602  A    between atoms: _1260  and  _1261
REMARK  603  A    between atoms: _1263  and  _1264
REMARK  604  A    between atoms: _1264  and  _1265
REMARK  605  A    between atoms: _1264  and  _1267
REMARK  606  A    between atoms: _1267  and  _1268
REMARK  607  A    between atoms: _1268  and  _1269
REMARK  608  A    between atoms: _1273  and  _1274
REMARK  609  A    between atoms: _1279  and  _1280
REMARK  610  A    between atoms: _1280  and  _1285
REMARK  611  A    between atoms: _1285  and  _1286
REMARK  612  A    between atoms: _1286  and  _1287
REMARK  613  A    between atoms: _1287  and  _1289
REMARK  614  A    between atoms: _1292  and  _1293
REMARK  615  A    between atoms: _1293  and  _1294
REMARK  616  A    between atoms: _1296  and  _1297
REMARK  617  A    between atoms: _1297  and  _1298
REMARK  618  A    between atoms: _1297  and  _1300
REMARK  619  A    between atoms: _1300  and  _1301
REMARK  620  A    between atoms: _1301  and  _1302
REMARK  621  A    between atoms: _1302  and  _1303
REMARK  622  A    between atoms: _1307  and  _1308
REMARK  623  A    between atoms: _1308  and  _1309
REMARK  624  A    between atoms: _1311  and  _1312
REMARK  625  A    between atoms: _1312  and  _1313
REMARK  626  A    between atoms: _1312  and  _1315
REMARK  627  A    between atoms: _1318  and  _1319
REMARK  628  A    between atoms: _1319  and  _1320
REMARK  629  A    between atoms: _1319  and  _1322
REMARK  630  A    between atoms: _1322  and  _1323
REMARK  631  A    between atoms: _1323  and  _1324
REMARK  632  A    between atoms: _1324  and  _1325
REMARK  633  A    between atoms: _1327  and  _1328
REMARK  634  A    between atoms: _1328  and  _1329
REMARK  635  A    between atoms: _1328  and  _1331
REMARK  636  A    between atoms: _1334  and  _1335
REMARK  637  A    between atoms: _1335  and  _1336
REMARK  638  A    between atoms: _1335  and  _1338
REMARK  639  A    between atoms: _1338  and  _1339
REMARK  640  A    between atoms: _1342  and  _1343
REMARK  641  A    between atoms: _1343  and  _1344
REMARK  642  A    between atoms: _1343  and  _1346
REMARK  643  A    between atoms: _1346  and  _1347
REMARK  644  A    between atoms: _1350  and  _1351
REMARK  645  A    between atoms: _1351  and  _1352
REMARK  646  A    between atoms: _1351  and  _1354
REMARK  647  A    between atoms: _1354  and  _1355
REMARK  648  A    between atoms: _1360  and  _1361
REMARK  649  A    between atoms: _1361  and  _1362
REMARK  650  A    between atoms: _1361  and  _1364
REMARK  651  A    between atoms: _1364  and  _1365
REMARK  652  A    between atoms: _1368  and  _1369
REMARK  653  A    between atoms: _1369  and  _1370
REMARK  654  A    between atoms: _1369  and  _1372
REMARK  655  A    between atoms: _1372  and  _1373
REMARK  656  A    between atoms: _1373  and  _1374
REMARK  657  A    between atoms: _1374  and  _1375
REMARK  658  A    between atoms: _1377  and  _1378
REMARK  659  A    between atoms: _1378  and  _1379
REMARK  660  A    between atoms: _1378  and  _1381
REMARK  661  A    between atoms: _1381  and  _1382
REMARK  662  A    between atoms: _1382  and  _1383
REMARK  663  A    between atoms: _1386  and  _1387
REMARK  664  A    between atoms: _1387  and  _1388
REMARK  665  A    between atoms: _1387  and  _1390
REMARK  666  A    between atoms: _1390  and  _1391
REMARK  667  A    between atoms: _1394  and  _1395
REMARK  668  A    between atoms: _1395  and  _1396
REMARK  669  A    between atoms: _1395  and  _1398
REMARK  670  A    between atoms: _1398  and  _1399
REMARK  671  A    between atoms: _1399  and  _1400
REMARK  672  A    between atoms: _1403  and  _1404
REMARK  673  A    between atoms: _1404  and  _1405
REMARK  674  A    between atoms: _1404  and  _1407
REMARK  675  A    between atoms: _1410  and  _1411
REMARK  676  A    between atoms: _1411  and  _1412
REMARK  677  A    between atoms: _1411  and  _1414
REMARK  678  A    between atoms: _1414  and  _1415
REMARK  679  A    between atoms: _1415  and  _1416
REMARK  680  A    between atoms: _1419  and  _1420
REMARK  681  A    between atoms: _1420  and  _1421
REMARK  682  A    between atoms: _1420  and  _1423
REMARK  683  A    between atoms: _1423  and  _1424
REMARK  684  A    between atoms: _1431  and  _1432
REMARK  685  A    between atoms: _1432  and  _1433
REMARK  686  A    between atoms: _1432  and  _1435
REMARK  687  A    between atoms: _1435  and  _1436
REMARK  688  A    between atoms: _1439  and  _1440
REMARK  689  A    between atoms: _1440  and  _1441
REMARK  690  A    between atoms: _1440  and  _1443
REMARK  691  A    between atoms: _1443  and  _1444
REMARK  692  A    between atoms: _1444  and  _1445
REMARK  693  A    between atoms: _1448  and  _1449
REMARK  694  A    between atoms: _1449  and  _1450
REMARK  695  A    between atoms: _1449  and  _1452
REMARK  696  A    between atoms: _1452  and  _1453
REMARK  697  A    between atoms: _1453  and  _1454
REMARK  698  A    between atoms: _1457  and  _1458
REMARK  699  A    between atoms: _1458  and  _1459
REMARK  700  A    between atoms: _1458  and  _1461
REMARK  701  A    between atoms: _1461  and  _1462
REMARK  702  A    between atoms: _1462  and  _1463
REMARK  703  A    between atoms: _1463  and  _1464
REMARK  704  A    between atoms: _1468  and  _1469
REMARK  705  A    between atoms: _1469  and  _1470
REMARK  706  A    between atoms: _1469  and  _1472
REMARK  707  A    between atoms: _1472  and  _1473
REMARK  708  A    between atoms: _1473  and  _1474
REMARK  709  A    between atoms: _1474  and  _1475
REMARK  710  A    between atoms: _1479  and  _1480
REMARK  711  A    between atoms: _1480  and  _1481
REMARK  712  A    between atoms: _1480  and  _1483
REMARK  713  A    between atoms: _1483  and  _1484
REMARK  714  A    between atoms: _1487  and  _1488
REMARK  715  A    between atoms: _1488  and  _1489
REMARK  716  A    between atoms: _1488  and  _1491
REMARK  717  A    between atoms: _1491  and  _1492
REMARK  718  A    between atoms: _1492  and  _1493
REMARK  719  A    between atoms: _1493  and  _1494
REMARK  720  A    between atoms: _1496  and  _1497
REMARK  721  A    between atoms: _1497  and  _1498
REMARK  722  A    between atoms: _1497  and  _1500
REMARK  723  A    between atoms: _1500  and  _1501
REMARK  724  A    between atoms: _1501  and  _1502
REMARK  725  A    between atoms: _1505  and  _1506
REMARK  726  A    between atoms: _1506  and  _1507
REMARK  727  A    between atoms: _1506  and  _1509
REMARK  728  A    between atoms: _1509  and  _1510
REMARK  729  A    between atoms: _1513  and  _1514
REMARK  730  A    between atoms: _1514  and  _1515
REMARK  731  A    between atoms: _1514  and  _1517
REMARK  732  A    between atoms: _1520  and  _1521
REMARK  733  A    between atoms: _1521  and  _1522
REMARK  734  A    between atoms: _1521  and  _1524
REMARK  735  A    between atoms: _1524  and  _1525
REMARK  736  A    between atoms: _1525  and  _1526
REMARK  737  A    between atoms: _1526  and  _1527
REMARK  738  A    between atoms: _1529  and  _1530
REMARK  739  A    between atoms: _1530  and  _1531
REMARK  740  A    between atoms: _1530  and  _1533
REMARK  741  A    between atoms: _1533  and  _1534
REMARK  742  A    between atoms: _1534  and  _1535
REMARK  743  A    between atoms: _1535  and  _1536
REMARK  744  A    between atoms: _1538  and  _1539
REMARK  745  A    between atoms: _1539  and  _1540
REMARK  746  A    between atoms: _1539  and  _1542
REMARK  747  A    between atoms: _1542  and  _1543
REMARK  748  A    between atoms: _1548  and  _1549
REMARK  749  A    between atoms: _1549  and  _1550
REMARK  750  A    between atoms: _1549  and  _1552
REMARK  751  A    between atoms: _1554  and  _1555
REMARK  752  A    between atoms: _1555  and  _1556
REMARK  753  A    between atoms: _1555  and  _1558
REMARK  754  A    between atoms: _1558  and  _1559
REMARK  755  A    between atoms: _1559  and  _1560
REMARK  756  A    between atoms: _1563  and  _1564
REMARK  757  A    between atoms: _1564  and  _1565
REMARK  758  A    between atoms: _1564  and  _1567
REMARK  759  A    between atoms: _1567  and  _1568
REMARK  760  A    between atoms: _1574  and  _1575
REMARK  761  A    between atoms: _1575  and  _1576
REMARK  762  A    between atoms: _1575  and  _1578
REMARK  763  A    between atoms: _1578  and  _1579
REMARK  764  A    between atoms: _1582  and  _1583
REMARK  765  A    between atoms: _1583  and  _1584
REMARK  766  A    between atoms: _1586  and  _1587
REMARK  767  A    between atoms: _1587  and  _1588
REMARK  768  A    between atoms: _1587  and  _1590
REMARK  769  A    between atoms: _1590  and  _1591
REMARK  770  A    between atoms: _1599  and  _1600
REMARK  771  A    between atoms: _1605  and  _1606
REMARK  772  A    between atoms: _1606  and  _1607
REMARK  773  A    between atoms: _1606  and  _1609
REMARK  774  A    between atoms: _1609  and  _1610
REMARK  775  A    between atoms: _1613  and  _1614
REMARK  776  A    between atoms: _1614  and  _1615
REMARK  777  A    between atoms: _1614  and  _1617
REMARK  778  A    between atoms: _1620  and  _1621
REMARK  779  A    between atoms: _1621  and  _1622
REMARK  780  A    between atoms: _1621  and  _1624
REMARK  781  A    between atoms: _1624  and  _1625
REMARK  782  A    between atoms: _1628  and  _1629
REMARK  783  A    between atoms: _1629  and  _1630
REMARK  784  A    between atoms: _1629  and  _1632
REMARK  785  A    between atoms: _1632  and  _1633
REMARK  786  A    between atoms: _1639  and  _1640
REMARK  787  A    between atoms: _1640  and  _1641
REMARK  788  A    between atoms: _1640  and  _1643
REMARK  789  A    between atoms: _1646  and  _1647
REMARK  790  A    between atoms: _1647  and  _1648
REMARK  791  A    between atoms: _1647  and  _1650
REMARK  792  A    between atoms: _1650  and  _1651
REMARK  793  A    between atoms: _1651  and  _1652
REMARK  794  A    between atoms: _1655  and  _1656
REMARK  795  A    between atoms: _1656  and  _1657
REMARK  796  A    between atoms: _1656  and  _1659
REMARK  797  A    between atoms: _1659  and  _1660
REMARK  798  A    between atoms: _1660  and  _1661
REMARK                            x       y       z     vdW  Elec       q    Type
REMARK                         _______ _______ _______ _____ _____    ______ ____
ROOT
ATOM      1  CA  ILE A  19      11.459 -20.640  38.489  0.00  0.00    +0.173 C 
ENDROOT
BRANCH   1   4
ATOM      2  C   ILE A  18      10.999 -18.274  38.920  0.00  0.00    +0.262 C 
ATOM      3  O   ILE A  18      10.280 -18.531  39.902  0.00  0.00    -0.271 OA
ATOM      4  N   ILE A  19      11.606 -19.221  38.182  0.00  0.00    -0.196 NA
BRANCH   2   5
ATOM      5  CA  ILE A  18      11.239 -16.837  38.495  0.00  0.00    +0.173 C 
BRANCH   5   8
ATOM      6  C   LEU A  17      13.643 -16.761  39.012  0.00  0.00    +0.262 C 
ATOM      7  O   LEU A  17      13.462 -17.109  40.185  0.00  0.00    -0.271 OA
ATOM      8  N   ILE A  18      12.642 -16.605  38.117  0.00  0.00    -0.196 NA
BRANCH   6   9
ATOM      9  CA  LEU A  17      15.063 -16.490  38.507  0.00  0.00    +0.173 C 
BRANCH   9  12
ATOM     10  C   SER A  16      15.165 -18.461  37.062  0.00  0.00    +0.264 C 
ATOM     11  O   SER A  16      14.919 -19.223  38.000  0.00  0.00    -0.271 OA
ATOM     12  N   LEU A  17      15.258 -17.135  37.199  0.00  0.00    -0.196 NA
BRANCH  10  13
ATOM     13  CA  SER A  16      15.363 -19.032  35.661  0.00  0.00    +0.205 C 
BRANCH  13  16
ATOM     14  C   MET A  15      13.401 -18.012  34.664  0.00  0.00    +0.262 C 
ATOM     15  O   MET A  15      12.666 -18.586  35.461  0.00  0.00    -0.271 OA
ATOM     16  N   SER A  16      14.743 -18.159  34.668  0.00  0.00    -0.194 NA
BRANCH  14  17
ATOM     17  CA  MET A  15      12.769 -17.068  33.642  0.00  0.00    +0.174 C 
BRANCH  17  20
ATOM     18  C   LEU A  14      13.801 -15.089  34.519  0.00  0.00    +0.262 C 
ATOM     19  O   LEU A  14      13.325 -15.341  35.634  0.00  0.00    -0.271 OA
ATOM     20  N   MET A  15      13.611 -15.882  33.463  0.00  0.00    -0.196 NA
BRANCH  18  21
ATOM     21  CA  LEU A  14      14.685 -13.857  34.327  0.00  0.00    +0.173 C 
BRANCH  21  24
ATOM     22  C   GLN A  13      16.769 -15.032  33.993  0.00  0.00    +0.262 C 
ATOM     23  O   GLN A  13      16.685 -15.557  35.113  0.00  0.00    -0.271 OA
ATOM     24  N   LEU A  14      15.846 -14.183  33.498  0.00  0.00    -0.196 NA
BRANCH  22  25
ATOM     25  CA  GLN A  13      17.969 -15.346  33.095  0.00  0.00    +0.173 C 
BRANCH  25  28
ATOM     26  C   ALA A  12      16.729 -16.611  31.431  0.00  0.00    +0.262 C 
ATOM     27  O   ALA A  12      16.330 -17.378  32.244  0.00  0.00    -0.271 OA
ATOM     28  N   GLN A  13      17.526 -15.591  31.722  0.00  0.00    -0.196 NA
BRANCH  26  29
ATOM     29  CA  ALA A  12      16.325 -16.767  29.960  0.00  0.00    +0.173 C 
ATOM     30  CB  ALA A  12      17.407 -17.501  29.190  0.00  0.00    +0.033 C 
BRANCH  29  33
ATOM     31  C   GLY A  11      15.092 -14.715  29.845  0.00  0.00    +0.264 C 
ATOM     32  O   GLY A  11      14.405 -15.029  30.788  0.00  0.00    -0.271 OA
ATOM     33  N   ALA A  12      16.065 -15.475  29.370  0.00  0.00    -0.196 NA
BRANCH  31  34
ATOM     34  CA  GLY A  11      15.013 -13.337  29.300  0.00  0.00    +0.201 C 
BRANCH  34  37
ATOM     35  C   GLU A  10      17.001 -12.321  30.103  0.00  0.00    +0.262 C 
ATOM     36  O   GLU A  10      16.634 -12.389  31.245  0.00  0.00    -0.271 OA
ATOM     37  N   GLY A  11      16.253 -12.723  29.082  0.00  0.00    -0.194 NA
BRANCH  35  38
ATOM     38  CA  GLU A  10      18.351 -11.688  29.760  0.00  0.00    +0.173 C 
BRANCH  38  41
ATOM     39  C   ALA A   9      19.335 -13.617  28.682  0.00  0.00    +0.262 C 
ATOM     40  O   ALA A   9      19.132 -14.355  29.659  0.00  0.00    -0.271 OA
ATOM     41  N   GLU A  10      18.980 -12.351  28.639  0.00  0.00    -0.196 NA
BRANCH  39  42
ATOM     42  CA  ALA A   9      20.023 -14.181  27.443  0.00  0.00    +0.173 C 
ATOM     43  CB  ALA A   9      21.497 -13.811  27.461  0.00  0.00    +0.033 C 
BRANCH  42  46
ATOM     44  C   GLN A   8      18.120 -13.899  25.946  0.00  0.00    +0.262 C 
ATOM     45  O   GLN A   8      17.331 -14.315  26.804  0.00  0.00    -0.271 OA
ATOM     46  N   ALA A   9      19.424 -13.770  26.175  0.00  0.00    -0.196 NA
BRANCH  44  47
ATOM     47  CA  GLN A   8      17.615 -13.565  24.546  0.00  0.00    +0.173 C 
BRANCH  47  50
ATOM     48  C   PHE A   7      16.678 -15.794  24.240  0.00  0.00    +0.262 C 
ATOM     49  O   PHE A   7      17.794 -16.326  24.383  0.00  0.00    -0.271 OA
ATOM     50  N   GLN A   8      16.490 -14.469  24.274  0.00  0.00    -0.196 NA
BRANCH  48  51
ATOM     51  CA  PHE A   7      15.422 -16.645  24.201  0.00  0.00    +0.177 C 
BRANCH  51  53
ATOM     52  C   ALA A   6      16.023 -17.912  22.259  0.00  0.00    +0.262 C 
ATOM     53  N   PHE A   7      15.758 -17.914  23.567  0.00  0.00    -0.196 NA
ATOM     54  O   ALA A   6      15.895 -16.892  21.559  0.00  0.00    -0.271 OA
BRANCH  52  55
ATOM     55  CA  ALA A   6      16.574 -19.213  21.664  0.00  0.00    +0.173 C 
ATOM     56  CB  ALA A   6      18.078 -19.059  21.529  0.00  0.00    +0.033 C 
BRANCH  55  59
ATOM     57  C   PHE A   5      14.773 -20.018  20.254  0.00  0.00    +0.262 C 
ATOM     58  O   PHE A   5      14.138 -20.462  21.221  0.00  0.00    -0.271 OA
ATOM     59  N   ALA A   6      15.962 -19.414  20.355  0.00  0.00    -0.196 NA
BRANCH  57  60
ATOM     60  CA  PHE A   5      14.137 -20.019  18.895  0.00  0.00    +0.177 C 
BRANCH  60  62
ATOM     61  C   THR A   4      13.509 -22.090  17.720  0.00  0.00    +0.264 C 
ATOM     62  N   PHE A   5      13.330 -21.221  18.724  0.00  0.00    -0.196 NA
ATOM     63  O   THR A   4      14.402 -21.992  16.881  0.00  0.00    -0.271 OA
BRANCH  61  64
ATOM     64  CA  THR A   4      12.546 -23.243  17.650  0.00  0.00    +0.203 C 
BRANCH  64  67
ATOM     65  C   GLU A   3      10.749 -23.130  15.980  0.00  0.00    +0.262 C 
ATOM     66  O   GLU A   3       9.884 -22.805  16.810  0.00  0.00    -0.271 OA
ATOM     67  N   THR A   4      12.040 -23.357  16.297  0.00  0.00    -0.194 NA
BRANCH  65  68
ATOM     68  CA  GLU A   3      10.355 -23.281  14.513  0.00  0.00    +0.173 C 
BRANCH  68  70
ATOM     69  C   VAL A   2       9.099 -25.316  14.062  0.00  0.00    +0.262 C 
ATOM     70  N   GLU A   3       9.106 -24.039  14.443  0.00  0.00    -0.196 NA
ATOM     71  O   VAL A   2      10.111 -25.917  13.676  0.00  0.00    -0.271 OA
BRANCH  69  72
ATOM     72  CA  VAL A   2       7.771 -26.050  14.090  0.00  0.00    +0.173 C 
BRANCH  72  74
ATOM     73  C   GLU A   1       6.568 -26.180  11.977  0.00  0.00    +0.259 C 
ATOM     74  N   VAL A   2       7.557 -26.634  12.757  0.00  0.00    -0.197 NA
ATOM     75  O   GLU A   1       5.772 -25.326  12.354  0.00  0.00    -0.272 OA
BRANCH  73  77
ATOM     76  N   GLU A   1       7.524 -27.610  10.152  0.00  0.00    -0.123 NA
ATOM     77  CA  GLU A   1       6.384 -26.810  10.585  0.00  0.00    +0.170 C 
BRANCH  77  78
ATOM     78  CB  GLU A   1       5.060 -27.600  10.502  0.00  0.00    +0.040 C 
BRANCH  78  79
ATOM     79  CG  GLU A   1       4.955 -28.807  11.425  0.00  0.00    +0.116 C 
BRANCH  79  80
ATOM     80  CD  GLU A   1       3.548 -29.354  11.569  0.00  0.00    +0.365 C 
ATOM     81  OE2 GLU A   1       2.998 -29.285  12.692  0.00  0.00    -0.246 OA
ATOM     82  OE1 GLU A   1       2.994 -29.855  10.562  0.00  0.00    -0.246 OA
ENDBRANCH  79  80
ENDBRANCH  78  79
ENDBRANCH  77  78
ENDBRANCH  73  77
ENDBRANCH  72  74
BRANCH  72  83
ATOM     83  CB  VAL A   2       7.758 -27.102  15.230  0.00  0.00    +0.029 C 
ATOM     84  CG2 VAL A   2       7.972 -26.435  16.590  0.00  0.00    +0.002 C 
ATOM     85  CG1 VAL A   2       6.469 -27.912  15.226  0.00  0.00    +0.002 C 
ENDBRANCH  72  83
ENDBRANCH  69  72
ENDBRANCH  68  70
BRANCH  68  86
ATOM     86  CB  GLU A   3      10.201 -21.910  13.866  0.00  0.00    +0.043 C 
BRANCH  86  87
ATOM     87  CG  GLU A   3      10.060 -21.980  12.354  0.00  0.00    +0.116 C 
BRANCH  87  88
ATOM     88  CD  GLU A   3       9.820 -20.613  11.752  0.00  0.00    +0.365 C 
ATOM     89  OE2 GLU A   3       8.724 -20.057  11.978  0.00  0.00    -0.246 OA
ATOM     90  OE1 GLU A   3      10.707 -20.114  11.027  0.00  0.00    -0.246 OA
ENDBRANCH  87  88
ENDBRANCH  86  87
ENDBRANCH  68  86
ENDBRANCH  65  68
ENDBRANCH  64  67
BRANCH  64  91
ATOM     91  CB  THR A   4      13.228 -24.553  18.089  0.00  0.00    +0.181 C 
ATOM     92  CG2 THR A   4      13.713 -24.502  19.529  0.00  0.00    +0.038 C 
ATOM     93  OG1 THR A   4      12.312 -25.641  17.929  0.00  0.00    -0.221 OA
ENDBRANCH  64  91
ENDBRANCH  61  64
ENDBRANCH  60  62
BRANCH  60  94
ATOM     94  CB  PHE A   5      13.226 -18.758  18.848  0.00  0.00    +0.057 C 
BRANCH  94  95
ATOM     95  CG  PHE A   5      12.484 -18.551  17.550  0.00  0.00    -0.020 A 
ATOM     96  CD2 PHE A   5      11.306 -19.247  17.284  0.00  0.00    -0.004 A 
ATOM     97  CE2 PHE A   5      10.631 -19.072  16.068  0.00  0.00    -0.000 A 
ATOM     98  CZ  PHE A   5      11.137 -18.211  15.118  0.00  0.00    -0.000 A 
ATOM     99  CE1 PHE A   5      12.281 -17.489  15.375  0.00  0.00    -0.000 A 
ATOM    100  CD1 PHE A   5      12.970 -17.673  16.587  0.00  0.00    -0.004 A 
ENDBRANCH  94  95
ENDBRANCH  60  94
ENDBRANCH  57  60
ENDBRANCH  55  59
ENDBRANCH  52  55
ENDBRANCH  51  53
BRANCH  51 101
ATOM    101  CB  PHE A   7      15.035 -16.850  25.680  0.00  0.00    +0.057 C 
BRANCH 101 102
ATOM    102  CG  PHE A   7      13.654 -17.421  25.884  0.00  0.00    -0.020 A 
ATOM    103  CD2 PHE A   7      13.488 -18.699  26.385  0.00  0.00    -0.004 A 
ATOM    104  CE2 PHE A   7      12.220 -19.247  26.557  0.00  0.00    -0.000 A 
ATOM    105  CZ  PHE A   7      11.096 -18.494  26.257  0.00  0.00    -0.000 A 
ATOM    106  CE1 PHE A   7      11.235 -17.203  25.785  0.00  0.00    -0.000 A 
ATOM    107  CD1 PHE A   7      12.516 -16.673  25.575  0.00  0.00    -0.004 A 
ENDBRANCH 101 102
ENDBRANCH  51 101
ENDBRANCH  48  51
ENDBRANCH  47  50
BRANCH  47 108
ATOM    108  CB  GLN A   8      17.163 -12.111  24.473  0.00  0.00    +0.041 C 
BRANCH 108 109
ATOM    109  CG  GLN A   8      16.906 -11.689  23.035  0.00  0.00    +0.091 C 
BRANCH 109 110
ATOM    110  CD  GLN A   8      16.305 -10.319  22.975  0.00  0.00    +0.261 C 
ATOM    111  OE1 GLN A   8      15.092 -10.149  23.083  0.00  0.00    -0.272 OA
ATOM    112  NE2 GLN A   8      17.144  -9.313  22.823  0.00  0.00    -0.088 NA
ENDBRANCH 109 110
ENDBRANCH 108 109
ENDBRANCH  47 108
ENDBRANCH  44  47
ENDBRANCH  42  46
ENDBRANCH  39  42
ENDBRANCH  38  41
BRANCH  38 113
ATOM    113  CB  GLU A  10      18.143 -10.204  29.445  0.00  0.00    +0.043 C 
BRANCH 113 114
ATOM    114  CG  GLU A  10      19.417  -9.387  29.388  0.00  0.00    +0.116 C 
BRANCH 114 115
ATOM    115  CD  GLU A  10      20.152  -9.462  28.061  0.00  0.00    +0.365 C 
ATOM    116  OE2 GLU A  10      21.206  -8.828  27.970  0.00  0.00    -0.246 OA
ATOM    117  OE1 GLU A  10      19.710 -10.120  27.126  0.00  0.00    -0.246 OA
ENDBRANCH 114 115
ENDBRANCH 113 114
ENDBRANCH  38 113
ENDBRANCH  35  38
ENDBRANCH  34  37
ENDBRANCH  31  34
ENDBRANCH  29  33
ENDBRANCH  26  29
ENDBRANCH  25  28
BRANCH  25 118
ATOM    118  CB  GLN A  13      18.997 -14.209  33.120  0.00  0.00    +0.041 C 
BRANCH 118 119
ATOM    119  CG  GLN A  13      19.705 -14.055  34.468  0.00  0.00    +0.091 C 
BRANCH 119 120
ATOM    120  CD  GLN A  13      20.674 -12.888  34.475  0.00  0.00    +0.261 C 
ATOM    121  NE2 GLN A  13      21.363 -12.719  35.583  0.00  0.00    -0.088 NA
ATOM    122  OE1 GLN A  13      20.795 -12.116  33.508  0.00  0.00    -0.272 OA
ENDBRANCH 119 120
ENDBRANCH 118 119
ENDBRANCH  25 118
ENDBRANCH  22  25
ENDBRANCH  21  24
BRANCH  21 123
ATOM    123  CB  LEU A  14      13.885 -12.685  33.781  0.00  0.00    +0.031 C 
BRANCH 123 124
ATOM    124  CG  LEU A  14      12.631 -12.365  34.656  0.00  0.00    +0.002 C 
ATOM    125  CD2 LEU A  14      12.996 -11.921  36.054  0.00  0.00    +0.000 C 
ATOM    126  CD1 LEU A  14      11.687 -11.435  33.991  0.00  0.00    +0.000 C 
ENDBRANCH 123 124
ENDBRANCH  21 123
ENDBRANCH  18  21
ENDBRANCH  17  20
BRANCH  17 127
ATOM    127  CB  MET A  15      12.573 -17.798  32.302  0.00  0.00    +0.043 C 
BRANCH 127 128
ATOM    128  CG  MET A  15      11.729 -16.973  31.355  0.00  0.00    +0.060 C 
BRANCH 128 129
ATOM    129  SD  MET A  15      11.633 -17.655  29.679  0.00  0.00    -0.139 S 
ATOM    130  CE  MET A  15      10.464 -18.971  29.932  0.00  0.00    +0.069 C 
ENDBRANCH 128 129
ENDBRANCH 127 128
ENDBRANCH  17 127
ENDBRANCH  14  17
ENDBRANCH  13  16
BRANCH  13 131
ATOM    131  CB  SER A  16      16.851 -19.195  35.374  0.00  0.00    +0.213 C 
ATOM    132  OG  SER A  16      16.957 -19.949  34.180  0.00  0.00    -0.218 OA
ENDBRANCH  13 131
ENDBRANCH  10  13
ENDBRANCH   9  12
BRANCH   9 133
ATOM    133  CB  LEU A  17      15.308 -14.977  38.399  0.00  0.00    +0.031 C 
BRANCH 133 134
ATOM    134  CG  LEU A  17      15.238 -14.137  39.691  0.00  0.00    +0.002 C 
ATOM    135  CD2 LEU A  17      13.771 -13.723  40.021  0.00  0.00    +0.000 C 
ATOM    136  CD1 LEU A  17      16.063 -12.853  39.532  0.00  0.00    +0.000 C 
ENDBRANCH 133 134
ENDBRANCH   9 133
ENDBRANCH   6   9
ENDBRANCH   5   8
BRANCH   5 137
ATOM    137  CB  ILE A  18      10.297 -16.383  37.349  0.00  0.00    +0.029 C 
ATOM    138  CG2 ILE A  18       8.851 -16.880  37.561  0.00  0.00    +0.002 C 
BRANCH 137 139
ATOM    139  CG1 ILE A  18      10.361 -14.831  37.222  0.00  0.00    +0.002 C 
ATOM    140  CD1 ILE A  18       9.737 -14.259  35.969  0.00  0.00    +0.000 C 
ENDBRANCH 137 139
ENDBRANCH   5 137
ENDBRANCH   2   5
ENDBRANCH   1   4
BRANCH   1 141
ATOM    141  C   ILE A  19      12.193 -21.049  39.753  0.00  0.00    +0.262 C 
ATOM    142  O   ILE A  19      11.678 -21.891  40.493  0.00  0.00    -0.271 OA
ATOM    143  N   ASN A  20      13.355 -20.442  40.038  0.00  0.00    -0.196 NA
BRANCH 143 144
ATOM    144  CA  ASN A  20      14.200 -20.922  41.144  0.00  0.00    +0.182 C 
BRANCH 144 145
ATOM    145  C   ASN A  20      14.134 -20.145  42.461  0.00  0.00    +0.262 C 
ATOM    146  O   ASN A  20      14.547 -20.691  43.491  0.00  0.00    -0.271 OA
ATOM    147  N   THR A  21      13.662 -18.887  42.444  0.00  0.00    -0.194 NA
BRANCH 147 148
ATOM    148  CA  THR A  21      13.615 -18.062  43.657  0.00  0.00    +0.203 C 
BRANCH 148 149
ATOM    149  CB  THR A  21      13.488 -16.568  43.264  0.00  0.00    +0.181 C 
ATOM    150  CG2 THR A  21      13.359 -15.630  44.462  0.00  0.00    +0.038 C 
ATOM    151  OG1 THR A  21      14.627 -16.187  42.473  0.00  0.00    -0.221 OA
ENDBRANCH 148 149
BRANCH 148 152
ATOM    152  C   THR A  21      12.493 -18.539  44.568  0.00  0.00    +0.264 C 
ATOM    153  N   PHE A  22      12.772 -18.607  45.881  0.00  0.00    -0.196 NA
ATOM    154  O   THR A  21      11.402 -18.858  44.099  0.00  0.00    -0.271 OA
BRANCH 153 155
ATOM    155  CA  PHE A  22      11.733 -18.939  46.832  0.00  0.00    +0.177 C 
BRANCH 155 156
ATOM    156  C   PHE A  22      10.865 -17.683  46.977  0.00  0.00    +0.262 C 
ATOM    157  O   PHE A  22      11.363 -16.611  47.348  0.00  0.00    -0.271 OA
ATOM    158  N   TYR A  23       9.585 -17.802  46.618  0.00  0.00    -0.196 NA
BRANCH 158 159
ATOM    159  CA  TYR A  23       8.675 -16.659  46.673  0.00  0.00    +0.177 C 
BRANCH 159 160
ATOM    160  C   TYR A  23       7.275 -17.226  46.809  0.00  0.00    +0.262 C 
ATOM    161  N   SER A  24       6.654 -17.026  47.973  0.00  0.00    -0.194 NA
ATOM    162  O   TYR A  23       6.776 -17.882  45.886  0.00  0.00    -0.271 OA
BRANCH 161 163
ATOM    163  CA  SER A  24       5.354 -17.644  48.251  0.00  0.00    +0.205 C 
BRANCH 163 164
ATOM    164  C   SER A  24       4.145 -16.983  47.586  0.00  0.00    +0.264 C 
ATOM    165  O   SER A  24       3.143 -17.661  47.385  0.00  0.00    -0.271 OA
ATOM    166  N   ASN A  25       4.223 -15.684  47.264  0.00  0.00    -0.196 NA
BRANCH 166 167
ATOM    167  CA  ASN A  25       3.097 -14.911  46.736  0.00  0.00    +0.182 C 
BRANCH 167 168
ATOM    168  C   ASN A  25       2.888 -15.144  45.225  0.00  0.00    +0.262 C 
ATOM    169  N   LYS A  26       2.694 -16.408  44.856  0.00  0.00    -0.196 NA
ATOM    170  O   ASN A  25       2.839 -14.206  44.419  0.00  0.00    -0.271 OA
BRANCH 169 171
ATOM    171  CA  LYS A  26       2.605 -16.771  43.441  0.00  0.00    +0.173 C 
BRANCH 171 172
ATOM    172  C   LYS A  26       1.342 -16.317  42.742  0.00  0.00    +0.262 C 
ATOM    173  N   GLU A  27       0.260 -16.034  43.511  0.00  0.00    -0.196 NA
ATOM    174  O   LYS A  26       1.362 -16.223  41.511  0.00  0.00    -0.271 OA
BRANCH 173 175
ATOM    175  CA  GLU A  27      -1.030 -15.688  42.903  0.00  0.00    +0.173 C 
BRANCH 175 176
ATOM    176  C   GLU A  27      -0.972 -14.498  41.951  0.00  0.00    +0.262 C 
ATOM    177  N   ILE A  28       0.097 -13.653  42.061  0.00  0.00    -0.196 NA
ATOM    178  O   GLU A  27      -1.906 -14.318  41.149  0.00  0.00    -0.271 OA
BRANCH 177 179
ATOM    179  CA  ILE A  28       0.189 -12.445  41.230  0.00  0.00    +0.173 C 
BRANCH 179 180
ATOM    180  C   ILE A  28       0.235 -12.777  39.730  0.00  0.00    +0.262 C 
ATOM    181  N   PHE A  29       0.536 -14.040  39.363  0.00  0.00    -0.196 NA
ATOM    182  O   ILE A  28      -0.052 -11.903  38.899  0.00  0.00    -0.271 OA
BRANCH 181 183
ATOM    183  CA  PHE A  29       0.587 -14.339  37.922  0.00  0.00    +0.177 C 
BRANCH 183 184
ATOM    184  C   PHE A  29      -0.761 -14.049  37.268  0.00  0.00    +0.262 C 
ATOM    185  N   LEU A  30      -1.873 -14.317  38.026  0.00  0.00    -0.196 NA
ATOM    186  O   PHE A  29      -0.820 -13.602  36.119  0.00  0.00    -0.271 OA
BRANCH 185 187
ATOM    187  CA  LEU A  30      -3.187 -14.182  37.390  0.00  0.00    +0.173 C 
BRANCH 187 188
ATOM    188  C   LEU A  30      -3.525 -12.728  37.129  0.00  0.00    +0.262 C 
ATOM    189  N   ARG A  31      -3.139 -11.854  38.071  0.00  0.00    -0.196 NA
ATOM    190  O   LEU A  30      -4.090 -12.385  36.092  0.00  0.00    -0.271 OA
BRANCH 189 191
ATOM    191  CA  ARG A  31      -3.347 -10.416  37.914  0.00  0.00    +0.173 C 
BRANCH 191 192
ATOM    192  C   ARG A  31      -2.596  -9.956  36.673  0.00  0.00    +0.262 C 
ATOM    193  N   GLU A  32      -1.364 -10.462  36.477  0.00  0.00    -0.196 NA
ATOM    194  O   ARG A  31      -3.132  -9.173  35.890  0.00  0.00    -0.271 OA
BRANCH 193 195
ATOM    195  CA  GLU A  32      -0.576 -10.015  35.343  0.00  0.00    +0.173 C 
BRANCH 195 196
ATOM    196  C   GLU A  32      -1.153 -10.449  34.019  0.00  0.00    +0.262 C 
ATOM    197  N   LEU A  33      -1.611 -11.719  33.935  0.00  0.00    -0.196 NA
ATOM    198  O   GLU A  32      -1.144  -9.656  33.062  0.00  0.00    -0.271 OA
BRANCH 197 199
ATOM    199  CA  LEU A  33      -2.205 -12.200  32.679  0.00  0.00    +0.173 C 
BRANCH 199 200
ATOM    200  C   LEU A  33      -3.553 -11.526  32.402  0.00  0.00    +0.262 C 
ATOM    201  N   ILE A  34      -4.398 -11.329  33.443  0.00  0.00    -0.196 NA
ATOM    202  O   LEU A  33      -3.842 -11.201  31.244  0.00  0.00    -0.271 OA
BRANCH 201 203
ATOM    203  CA  ILE A  34      -5.642 -10.599  33.201  0.00  0.00    +0.173 C 
BRANCH 203 204
ATOM    204  C   ILE A  34      -5.366  -9.159  32.755  0.00  0.00    +0.261 C 
ATOM    205  N   GLY A  35      -4.329  -8.530  33.326  0.00  0.00    -0.196 NA
ATOM    206  O   ILE A  34      -6.098  -8.615  31.913  0.00  0.00    -0.271 OA
BRANCH 205 207
ATOM    207  CA  GLY A  35      -3.952  -7.176  32.931  0.00  0.00    +0.215 C 
BRANCH 207 208
ATOM    208  C   GLY A  35      -2.868  -6.613  33.810  0.00  0.00    +0.447 C 
ATOM    209  OXT GLY A  35      -3.331  -6.474  35.143  0.00  0.00    -0.265 OA
ATOM    210  O   GLY A  35      -2.332  -5.416  33.361  0.00  0.00    -0.265 OA
ENDBRANCH 207 208
ENDBRANCH 205 207
ENDBRANCH 203 204
BRANCH 203 211
ATOM    211  CB  ILE A  34      -6.558 -10.672  34.438  0.00  0.00    +0.029 C 
ATOM    212  CG2 ILE A  34      -7.729  -9.641  34.351  0.00  0.00    +0.002 C 
BRANCH 211 213
ATOM    213  CG1 ILE A  34      -7.065 -12.117  34.597  0.00  0.00    +0.002 C 
ATOM    214  CD1 ILE A  34      -7.835 -12.406  35.959  0.00  0.00    +0.000 C 
ENDBRANCH 211 213
ENDBRANCH 203 211
ENDBRANCH 201 203
ENDBRANCH 199 200
BRANCH 199 215
ATOM    215  CB  LEU A  33      -2.357 -13.733  32.714  0.00  0.00    +0.031 C 
BRANCH 215 216
ATOM    216  CG  LEU A  33      -1.009 -14.472  32.813  0.00  0.00    +0.002 C 
ATOM    217  CD2 LEU A  33      -1.238 -15.987  32.952  0.00  0.00    +0.000 C 
ATOM    218  CD1 LEU A  33      -0.071 -14.148  31.627  0.00  0.00    +0.000 C 
ENDBRANCH 215 216
ENDBRANCH 199 215
ENDBRANCH 197 199
ENDBRANCH 195 196
BRANCH 195 219
ATOM    219  CB  GLU A  32       0.865 -10.518  35.467  0.00  0.00    +0.043 C 
BRANCH 219 220
ATOM    220  CG  GLU A  32       1.575 -10.025  36.716  0.00  0.00    +0.116 C 
BRANCH 220 221
ATOM    221  CD  GLU A  32       1.673  -8.511  36.846  0.00  0.00    +0.365 C 
ATOM    222  OE2 GLU A  32       1.557  -8.015  37.994  0.00  0.00    -0.246 OA
ATOM    223  OE1 GLU A  32       1.755  -7.823  35.800  0.00  0.00    -0.246 OA
ENDBRANCH 220 221
ENDBRANCH 219 220
ENDBRANCH 195 219
ENDBRANCH 193 195
ENDBRANCH 191 192
BRANCH 191 224
ATOM    224  CB  ARG A  31      -2.780  -9.700  39.152  0.00  0.00    +0.035 C 
BRANCH 224 225
ATOM    225  CG  ARG A  31      -2.811  -8.168  39.045  0.00  0.00    +0.049 C 
BRANCH 225 226
ATOM    226  CD  ARG A  31      -2.016  -7.515  40.163  0.00  0.00    +0.220 C 
BRANCH 226 227
ATOM    227  NE  ARG A  31      -0.590  -7.836  40.057  0.00  0.00    -0.087 NA
ATOM    228  CZ  ARG A  31       0.289  -7.684  41.042  0.00  0.00    +0.535 C 
ATOM    229  NH2 ARG A  31      -0.104  -7.232  42.229  0.00  0.00    +0.135 NA
ATOM    230  NH1 ARG A  31       1.561  -8.012  40.859  0.00  0.00    +0.135 NA
ENDBRANCH 226 227
ENDBRANCH 225 226
ENDBRANCH 224 225
ENDBRANCH 191 224
ENDBRANCH 189 191
ENDBRANCH 187 188
BRANCH 187 231
ATOM    231  CB  LEU A  30      -4.252 -14.883  38.226  0.00  0.00    +0.031 C 
BRANCH 231 232
ATOM    232  CG  LEU A  30      -5.652 -14.980  37.606  0.00  0.00    +0.002 C 
ATOM    233  CD2 LEU A  30      -6.594 -15.666  38.571  0.00  0.00    +0.000 C 
ATOM    234  CD1 LEU A  30      -5.620 -15.742  36.287  0.00  0.00    +0.000 C 
ENDBRANCH 231 232
ENDBRANCH 187 231
ENDBRANCH 185 187
ENDBRANCH 183 184
BRANCH 183 235
ATOM    235  CB  PHE A  29       0.961 -15.830  37.642  0.00  0.00    +0.057 C 
BRANCH 235 236
ATOM    236  CG  PHE A  29      -0.196 -16.793  37.856  0.00  0.00    -0.020 A 
ATOM    237  CD2 PHE A  29      -0.508 -17.258  39.129  0.00  0.00    -0.004 A 
ATOM    238  CE2 PHE A  29      -1.606 -18.100  39.338  0.00  0.00    -0.000 A 
ATOM    239  CZ  PHE A  29      -2.437 -18.436  38.284  0.00  0.00    -0.000 A 
ATOM    240  CE1 PHE A  29      -2.158 -17.960  37.016  0.00  0.00    -0.000 A 
ATOM    241  CD1 PHE A  29      -1.039 -17.143  36.797  0.00  0.00    -0.004 A 
ENDBRANCH 235 236
ENDBRANCH 183 235
ENDBRANCH 181 183
ENDBRANCH 179 180
BRANCH 179 242
ATOM    242  CB  ILE A  28       1.364 -11.530  41.671  0.00  0.00    +0.029 C 
ATOM    243  CG2 ILE A  28       1.170 -11.082  43.129  0.00  0.00    +0.002 C 
BRANCH 242 244
ATOM    244  CG1 ILE A  28       2.724 -12.211  41.466  0.00  0.00    +0.002 C 
ATOM    245  CD1 ILE A  28       3.424 -11.760  40.202  0.00  0.00    +0.000 C 
ENDBRANCH 242 244
ENDBRANCH 179 242
ENDBRANCH 177 179
ENDBRANCH 175 176
BRANCH 175 246
ATOM    246  CB  GLU A  27      -2.072 -15.430  43.978  0.00  0.00    +0.043 C 
BRANCH 246 247
ATOM    247  CG  GLU A  27      -1.849 -14.126  44.728  0.00  0.00    +0.116 C 
BRANCH 247 248
ATOM    248  CD  GLU A  27      -2.768 -13.946  45.918  0.00  0.00    +0.365 C 
ATOM    249  OE2 GLU A  27      -2.976 -14.931  46.661  0.00  0.00    -0.246 OA
ATOM    250  OE1 GLU A  27      -3.216 -12.805  46.156  0.00  0.00    -0.246 OA
ENDBRANCH 247 248
ENDBRANCH 246 247
ENDBRANCH 175 246
ENDBRANCH 173 175
ENDBRANCH 171 172
BRANCH 171 251
ATOM    251  CB  LYS A  26       2.784 -18.286  43.256  0.00  0.00    +0.031 C 
BRANCH 251 252
ATOM    252  CG  LYS A  26       4.171 -18.834  43.661  0.00  0.00    +0.004 C 
BRANCH 252 253
ATOM    253  CD  LYS A  26       4.164 -20.368  43.506  0.00  0.00    +0.021 C 
BRANCH 253 254
ATOM    254  CE  LYS A  26       5.464 -21.054  43.866  0.00  0.00    +0.109 C 
ATOM    255  NZ  LYS A  26       6.437 -20.980  42.750  0.00  0.00    -0.131 NA
ENDBRANCH 253 254
ENDBRANCH 252 253
ENDBRANCH 251 252
ENDBRANCH 171 251
ENDBRANCH 169 171
ENDBRANCH 167 168
BRANCH 167 256
ATOM    256  CB  ASN A  25       3.317 -13.418  47.085  0.00  0.00    +0.120 C 
BRANCH 256 257
ATOM    257  CG  ASN A  25       2.229 -12.469  46.677  0.00  0.00    +0.263 C 
ATOM    258  ND2 ASN A  25       0.992 -12.930  46.735  0.00  0.00    -0.088 NA
ATOM    259  OD1 ASN A  25       2.503 -11.316  46.292  0.00  0.00    -0.272 OA
ENDBRANCH 256 257
ENDBRANCH 167 256
ENDBRANCH 166 167
ENDBRANCH 163 164
BRANCH 163 260
ATOM    260  CB  SER A  24       5.120 -17.729  49.755  0.00  0.00    +0.213 C 
ATOM    261  OG  SER A  24       6.161 -18.484  50.352  0.00  0.00    -0.218 OA
ENDBRANCH 163 260
ENDBRANCH 161 163
ENDBRANCH 159 160
BRANCH 159 262
ATOM    262  CB  TYR A  23       8.829 -15.815  45.386  0.00  0.00    +0.057 C 
BRANCH 262 263
ATOM    263  CG  TYR A  23       7.975 -14.574  45.374  0.00  0.00    -0.020 A 
ATOM    264  CD2 TYR A  23       8.283 -13.486  46.188  0.00  0.00    -0.001 A 
ATOM    265  CE2 TYR A  23       7.473 -12.354  46.222  0.00  0.00    +0.042 A 
ATOM    266  CZ  TYR A  23       6.356 -12.288  45.410  0.00  0.00    +0.196 A 
ATOM    267  OH  TYR A  23       5.582 -11.152  45.446  0.00  0.00    -0.287 OA
ATOM    268  CE1 TYR A  23       6.029 -13.353  44.582  0.00  0.00    +0.042 A 
ATOM    269  CD1 TYR A  23       6.831 -14.498  44.581  0.00  0.00    -0.001 A 
ENDBRANCH 262 263
ENDBRANCH 159 262
ENDBRANCH 158 159
ENDBRANCH 155 156
BRANCH 155 270
ATOM    270  CB  PHE A  22      12.351 -19.341  48.171  0.00  0.00    +0.057 C 
BRANCH 270 271
ATOM    271  CG  PHE A  22      11.308 -19.720  49.190  0.00  0.00    -0.020 A 
ATOM    272  CD2 PHE A  22      10.897 -18.810  50.159  0.00  0.00    -0.004 A 
ATOM    273  CE2 PHE A  22       9.924 -19.156  51.100  0.00  0.00    -0.000 A 
ATOM    274  CZ  PHE A  22       9.358 -20.414  51.078  0.00  0.00    -0.000 A 
ATOM    275  CE1 PHE A  22       9.733 -21.322  50.104  0.00  0.00    -0.000 A 
ATOM    276  CD1 PHE A  22      10.709 -20.973  49.160  0.00  0.00    -0.004 A 
ENDBRANCH 270 271
ENDBRANCH 155 270
ENDBRANCH 153 155
ENDBRANCH 148 152
ENDBRANCH 147 148
ENDBRANCH 144 145
BRANCH 144 277
ATOM    277  CB  ASN A  20      15.643 -21.010  40.671  0.00  0.00    +0.120 C 
BRANCH 277 278
ATOM    278  CG  ASN A  20      15.799 -21.966  39.512  0.00  0.00    +0.263 C 
ATOM    279  OD1 ASN A  20      15.232 -23.065  39.500  0.00  0.00    -0.272 OA
ATOM    280  ND2 ASN A  20      16.498 -21.532  38.476  0.00  0.00    -0.088 NA
ENDBRANCH 277 278
ENDBRANCH 144 277
ENDBRANCH 143 144
ENDBRANCH   1 141
BRANCH   1 281
ATOM    281  CB  ILE A  19      11.904 -21.479  37.247  0.00  0.00    +0.029 C 
ATOM    282  CG2 ILE A  19      12.076 -22.991  37.579  0.00  0.00    +0.002 C 
BRANCH 281 283
ATOM    283  CG1 ILE A  19      10.881 -21.295  36.123  0.00  0.00    +0.002 C 
ATOM    284  CD1 ILE A  19      11.488 -21.667  34.709  0.00  0.00    +0.000 C 
ENDBRANCH 281 283
ENDBRANCH   1 281
TORSDOF 136
REMARK  Name = /Users/mlugowska/PhD/ML_residence_time_prediction/protein_files/5NYI_protein.pdb
REMARK  798 active torsions:
REMARK  status: ('A' for Active; 'I' for Inactive)
REMARK    1  A    between atoms: _2  and  _3
REMARK    2  A    between atoms: _2  and  _5
REMARK    3  A    between atoms: _5  and  _6
REMARK    4  A    between atoms: _6  and  _7
REMARK    5  A    between atoms: _10  and  _11
REMARK    6  A    between atoms: _11  and  _12
REMARK    7  A    between atoms: _11  and  _14
REMARK    8  A    between atoms: _17  and  _18
REMARK    9  A    between atoms: _18  and  _19
REMARK   10  A    between atoms: _18  and  _21
REMARK   11  A    between atoms: _21  and  _22
REMARK   12  A    between atoms: _22  and  _23
REMARK   13  A    between atoms: _26  and  _27
REMARK   14  A    between atoms: _27  and  _28
REMARK   15  A    between atoms: _27  and  _30
REMARK   16  A    between atoms: _33  and  _34
REMARK   17  A    between atoms: _34  and  _35
REMARK   18  A    between atoms: _34  and  _37
REMARK   19  A    between atoms: _37  and  _38
REMARK   20  A    between atoms: _44  and  _45
REMARK   21  A    between atoms: _45  and  _46
REMARK   22  A    between atoms: _49  and  _50
REMARK   23  A    between atoms: _50  and  _51
REMARK   24  A    between atoms: _50  and  _53
REMARK   25  A    between atoms: _53  and  _54
REMARK   26  A    between atoms: _60  and  _61
REMARK   27  A    between atoms: _61  and  _62
REMARK   28  A    between atoms: _61  and  _64
REMARK   29  A    between atoms: _64  and  _65
REMARK   30  A    between atoms: _65  and  _66
REMARK   31  A    between atoms: _69  and  _70
REMARK   32  A    between atoms: _70  and  _71
REMARK   33  A    between atoms: _74  and  _75
REMARK   34  A    between atoms: _75  and  _76
REMARK   35  A    between atoms: _75  and  _78
REMARK   36  A    between atoms: _78  and  _79
REMARK   37  A    between atoms: _79  and  _80
REMARK   38  A    between atoms: _83  and  _84
REMARK   39  A    between atoms: _84  and  _86
REMARK   40  A    between atoms: _88  and  _90
REMARK   41  A    between atoms: _96  and  _97
REMARK   42  A    between atoms: _97  and  _98
REMARK   43  A    between atoms: _101  and  _102
REMARK   44  A    between atoms: _102  and  _103
REMARK   45  A    between atoms: _102  and  _105
REMARK   46  A    between atoms: _105  and  _106
REMARK   47  A    between atoms: _106  and  _107
REMARK   48  A    between atoms: _110  and  _111
REMARK   49  A    between atoms: _111  and  _112
REMARK   50  A    between atoms: _111  and  _114
REMARK   51  A    between atoms: _114  and  _115
REMARK   52  A    between atoms: _118  and  _119
REMARK   53  A    between atoms: _119  and  _120
REMARK   54  A    between atoms: _119  and  _122
REMARK   55  A    between atoms: _122  and  _123
REMARK   56  A    between atoms: _123  and  _124
REMARK   57  A    between atoms: _126  and  _127
REMARK   58  A    between atoms: _127  and  _128
REMARK   59  A    between atoms: _127  and  _130
REMARK   60  A    between atoms: _132  and  _133
REMARK   61  A    between atoms: _133  and  _134
REMARK   62  A    between atoms: _133  and  _136
REMARK   63  A    between atoms: _136  and  _137
REMARK   64  A    between atoms: _140  and  _141
REMARK   65  A    between atoms: _141  and  _142
REMARK   66  A    between atoms: _141  and  _144
REMARK   67  A    between atoms: _144  and  _145
REMARK   68  A    between atoms: _148  and  _149
REMARK   69  A    between atoms: _149  and  _150
REMARK   70  A    between atoms: _149  and  _152
REMARK   71  A    between atoms: _152  and  _153
REMARK   72  A    between atoms: _156  and  _157
REMARK   73  A    between atoms: _157  and  _158
REMARK   74  A    between atoms: _157  and  _160
REMARK   75  A    between atoms: _160  and  _161
REMARK   76  A    between atoms: _164  and  _165
REMARK   77  A    between atoms: _165  and  _166
REMARK   78  A    between atoms: _165  and  _168
REMARK   79  A    between atoms: _171  and  _172
REMARK   80  A    between atoms: _172  and  _173
REMARK   81  A    between atoms: _172  and  _175
REMARK   82  A    between atoms: _175  and  _176
REMARK   83  A    between atoms: _182  and  _183
REMARK   84  A    between atoms: _183  and  _184
REMARK   85  A    between atoms: _183  and  _186
REMARK   86  A    between atoms: _186  and  _187
REMARK   87  A    between atoms: _194  and  _195
REMARK   88  A    between atoms: _195  and  _196
REMARK   89  A    between atoms: _195  and  _198
REMARK   90  A    between atoms: _200  and  _201
REMARK   91  A    between atoms: _201  and  _202
REMARK   92  A    between atoms: _201  and  _204
REMARK   93  A    between atoms: _204  and  _205
REMARK   94  A    between atoms: _208  and  _209
REMARK   95  A    between atoms: _209  and  _210
REMARK   96  A    between atoms: _209  and  _212
REMARK   97  A    between atoms: _212  and  _213
REMARK   98  A    between atoms: _213  and  _214
REMARK   99  A    between atoms: _214  and  _215
REMARK  100  A    between atoms: _217  and  _218
REMARK  101  A    between atoms: _218  and  _219
REMARK  102  A    between atoms: _218  and  _221
REMARK  103  A    between atoms: _221  and  _222
REMARK  104  A    between atoms: _222  and  _223
REMARK  105  A    between atoms: _226  and  _227
REMARK  106  A    between atoms: _227  and  _228
REMARK  107  A    between atoms: _227  and  _230
REMARK  108  A    between atoms: _230  and  _231
REMARK  109  A    between atoms: _234  and  _235
REMARK  110  A    between atoms: _235  and  _236
REMARK  111  A    between atoms: _235  and  _238
REMARK  112  A    between atoms: _238  and  _239
REMARK  113  A    between atoms: _245  and  _246
REMARK  114  A    between atoms: _246  and  _247
REMARK  115  A    between atoms: _246  and  _249
REMARK  116  A    between atoms: _249  and  _250
REMARK  117  A    between atoms: _253  and  _254
REMARK  118  A    between atoms: _254  and  _255
REMARK  119  A    between atoms: _254  and  _257
REMARK  120  A    between atoms: _257  and  _258
REMARK  121  A    between atoms: _258  and  _259
REMARK  122  A    between atoms: _259  and  _260
REMARK  123  A    between atoms: _264  and  _265
REMARK  124  A    between atoms: _265  and  _266
REMARK  125  A    between atoms: _265  and  _268
REMARK  126  A    between atoms: _268  and  _269
REMARK  127  A    between atoms: _269  and  _270
REMARK  128  A    between atoms: _273  and  _274
REMARK  129  A    between atoms: _274  and  _275
REMARK  130  A    between atoms: _274  and  _277
REMARK  131  A    between atoms: _277  and  _278
REMARK  132  A    between atoms: _281  and  _282
REMARK  133  A    between atoms: _282  and  _283
REMARK  134  A    between atoms: _282  and  _285
REMARK  135  A    between atoms: _285  and  _286
REMARK  136  A    between atoms: _289  and  _290
REMARK  137  A    between atoms: _290  and  _295
REMARK  138  A    between atoms: _298  and  _299
REMARK  139  A    between atoms: _299  and  _300
REMARK  140  A    between atoms: _299  and  _302
REMARK  141  A    between atoms: _302  and  _303
REMARK  142  A    between atoms: _306  and  _307
REMARK  143  A    between atoms: _307  and  _308
REMARK  144  A    between atoms: _307  and  _310
REMARK  145  A    between atoms: _312  and  _313
REMARK  146  A    between atoms: _313  and  _314
REMARK  147  A    between atoms: _313  and  _316
REMARK  148  A    between atoms: _318  and  _319
REMARK  149  A    between atoms: _319  and  _320
REMARK  150  A    between atoms: _319  and  _322
REMARK  151  A    between atoms: _322  and  _323
REMARK  152  A    between atoms: _326  and  _327
REMARK  153  A    between atoms: _327  and  _328
REMARK  154  A    between atoms: _331  and  _332
REMARK  155  A    between atoms: _332  and  _333
REMARK  156  A    between atoms: _332  and  _335
REMARK  157  A    between atoms: _335  and  _336
REMARK  158  A    between atoms: _339  and  _340
REMARK  159  A    between atoms: _340  and  _341
REMARK  160  A    between atoms: _340  and  _343
REMARK  161  A    between atoms: _343  and  _344
REMARK  162  A    between atoms: _347  and  _348
REMARK  163  A    between atoms: _348  and  _349
REMARK  164  A    between atoms: _348  and  _351
REMARK  165  A    between atoms: _351  and  _352
REMARK  166  A    between atoms: _352  and  _353
REMARK  167  A    between atoms: _353  and  _354
REMARK  168  A    between atoms: _356  and  _357
REMARK  169  A    between atoms: _357  and  _358
REMARK  170  A    between atoms: _357  and  _360
REMARK  171  A    between atoms: _360  and  _361
REMARK  172  A    between atoms: _364  and  _365
REMARK  173  A    between atoms: _365  and  _366
REMARK  174  A    between atoms: _365  and  _368
REMARK  175  A    between atoms: _368  and  _369
REMARK  176  A    between atoms: _369  and  _370
REMARK  177  A    between atoms: _370  and  _371
REMARK  178  A    between atoms: _375  and  _376
REMARK  179  A    between atoms: _376  and  _377
REMARK  180  A    between atoms: _376  and  _379
REMARK  181  A    between atoms: _379  and  _380
REMARK  182  A    between atoms: _387  and  _388
REMARK  183  A    between atoms: _388  and  _389
REMARK  184  A    between atoms: _388  and  _391
REMARK  185  A    between atoms: _391  and  _392
REMARK  186  A    between atoms: _392  and  _393
REMARK  187  A    between atoms: _396  and  _397
REMARK  188  A    between atoms: _397  and  _398
REMARK  189  A    between atoms: _397  and  _400
REMARK  190  A    between atoms: _403  and  _404
REMARK  191  A    between atoms: _404  and  _405
REMARK  192  A    between atoms: _404  and  _407
REMARK  193  A    between atoms: _407  and  _408
REMARK  194  A    between atoms: _411  and  _412
REMARK  195  A    between atoms: _412  and  _413
REMARK  196  A    between atoms: _412  and  _415
REMARK  197  A    between atoms: _418  and  _419
REMARK  198  A    between atoms: _419  and  _420
REMARK  199  A    between atoms: _419  and  _422
REMARK  200  A    between atoms: _422  and  _423
REMARK  201  A    between atoms: _427  and  _428
REMARK  202  A    between atoms: _433  and  _434
REMARK  203  A    between atoms: _434  and  _435
REMARK  204  A    between atoms: _434  and  _437
REMARK  205  A    between atoms: _439  and  _440
REMARK  206  A    between atoms: _440  and  _441
REMARK  207  A    between atoms: _440  and  _443
REMARK  208  A    between atoms: _443  and  _444
REMARK  209  A    between atoms: _444  and  _445
REMARK  210  A    between atoms: _445  and  _446
REMARK  211  A    between atoms: _448  and  _449
REMARK  212  A    between atoms: _449  and  _450
REMARK  213  A    between atoms: _449  and  _452
REMARK  214  A    between atoms: _452  and  _453
REMARK  215  A    between atoms: _456  and  _457
REMARK  216  A    between atoms: _457  and  _458
REMARK  217  A    between atoms: _457  and  _460
REMARK  218  A    between atoms: _460  and  _461
REMARK  219  A    between atoms: _464  and  _465
REMARK  220  A    between atoms: _465  and  _466
REMARK  221  A    between atoms: _465  and  _468
REMARK  222  A    between atoms: _470  and  _471
REMARK  223  A    between atoms: _471  and  _472
REMARK  224  A    between atoms: _474  and  _475
REMARK  225  A    between atoms: _475  and  _476
REMARK  226  A    between atoms: _475  and  _478
REMARK  227  A    between atoms: _478  and  _479
REMARK  228  A    between atoms: _479  and  _480
REMARK  229  A    between atoms: _480  and  _481
REMARK  230  A    between atoms: _483  and  _484
REMARK  231  A    between atoms: _484  and  _485
REMARK  232  A    between atoms: _484  and  _487
REMARK  233  A    between atoms: _487  and  _488
REMARK  234  A    between atoms: _488  and  _489
REMARK  235  A    between atoms: _492  and  _493
REMARK  236  A    between atoms: _493  and  _494
REMARK  237  A    between atoms: _493  and  _496
REMARK  238  A    between atoms: _496  and  _497
REMARK  239  A    between atoms: _500  and  _501
REMARK  240  A    between atoms: _501  and  _502
REMARK  241  A    between atoms: _501  and  _504
REMARK  242  A    between atoms: _504  and  _505
REMARK  243  A    between atoms: _510  and  _511
REMARK  244  A    between atoms: _511  and  _512
REMARK  245  A    between atoms: _511  and  _514
REMARK  246  A    between atoms: _514  and  _515
REMARK  247  A    between atoms: _518  and  _519
REMARK  248  A    between atoms: _519  and  _520
REMARK  249  A    between atoms: _519  and  _522
REMARK  250  A    between atoms: _522  and  _523
REMARK  251  A    between atoms: _526  and  _527
REMARK  252  A    between atoms: _527  and  _528
REMARK  253  A    between atoms: _527  and  _530
REMARK  254  A    between atoms: _530  and  _531
REMARK  255  A    between atoms: _534  and  _535
REMARK  256  A    between atoms: _535  and  _536
REMARK  257  A    between atoms: _535  and  _538
REMARK  258  A    between atoms: _538  and  _539
REMARK  259  A    between atoms: _543  and  _544
REMARK  260  A    between atoms: _549  and  _550
REMARK  261  A    between atoms: _550  and  _551
REMARK  262  A    between atoms: _550  and  _553
REMARK  263  A    between atoms: _553  and  _554
REMARK  264  A    between atoms: _557  and  _558
REMARK  265  A    between atoms: _558  and  _559
REMARK  266  A    between atoms: _558  and  _561
REMARK  267  A    between atoms: _561  and  _562
REMARK  268  A    between atoms: _562  and  _563
REMARK  269  A    between atoms: _563  and  _564
REMARK  270  A    between atoms: _566  and  _567
REMARK  271  A    between atoms: _567  and  _568
REMARK  272  A    between atoms: _567  and  _570
REMARK  273  A    between atoms: _570  and  _571
REMARK  274  A    between atoms: _571  and  _572
REMARK  275  A    between atoms: _575  and  _576
REMARK  276  A    between atoms: _576  and  _577
REMARK  277  A    between atoms: _576  and  _579
REMARK  278  A    between atoms: _579  and  _580
REMARK  279  A    between atoms: _583  and  _584
REMARK  280  A    between atoms: _584  and  _585
REMARK  281  A    between atoms: _584  and  _587
REMARK  282  A    between atoms: _587  and  _588
REMARK  283  A    between atoms: _588  and  _589
REMARK  284  A    between atoms: _589  and  _590
REMARK  285  A    between atoms: _594  and  _595
REMARK  286  A    between atoms: _595  and  _596
REMARK  287  A    between atoms: _595  and  _598
REMARK  288  A    between atoms: _601  and  _602
REMARK  289  A    between atoms: _602  and  _603
REMARK  290  A    between atoms: _602  and  _605
REMARK  291  A    between atoms: _605  and  _606
REMARK  292  A    between atoms: _609  and  _610
REMARK  293  A    between atoms: _610  and  _611
REMARK  294  A    between atoms: _610  and  _613
REMARK  295  A    between atoms: _616  and  _617
REMARK  296  A    between atoms: _617  and  _618
REMARK  297  A    between atoms: _617  and  _620
REMARK  298  A    between atoms: _620  and  _621
REMARK  299  A    between atoms: _624  and  _625
REMARK  300  A    between atoms: _625  and  _626
REMARK  301  A    between atoms: _625  and  _628
REMARK  302  A    between atoms: _631  and  _632
REMARK  303  A    between atoms: _632  and  _633
REMARK  304  A    between atoms: _632  and  _635
REMARK  305  A    between atoms: _635  and  _636
REMARK  306  A    between atoms: _639  and  _640
REMARK  307  A    between atoms: _640  and  _641
REMARK  308  A    between atoms: _640  and  _643
REMARK  309  A    between atoms: _646  and  _647
REMARK  310  A    between atoms: _647  and  _648
REMARK  311  A    between atoms: _650  and  _651
REMARK  312  A    between atoms: _651  and  _652
REMARK  313  A    between atoms: _651  and  _654
REMARK  314  A    between atoms: _654  and  _655
REMARK  315  A    between atoms: _658  and  _659
REMARK  316  A    between atoms: _659  and  _660
REMARK  317  A    between atoms: _662  and  _663
REMARK  318  A    between atoms: _663  and  _664
REMARK  319  A    between atoms: _663  and  _666
REMARK  320  A    between atoms: _666  and  _667
REMARK  321  A    between atoms: _667  and  _668
REMARK  322  A    between atoms: _670  and  _671
REMARK  323  A    between atoms: _671  and  _672
REMARK  324  A    between atoms: _671  and  _674
REMARK  325  A    between atoms: _677  and  _678
REMARK  326  A    between atoms: _678  and  _679
REMARK  327  A    between atoms: _678  and  _681
REMARK  328  A    between atoms: _681  and  _682
REMARK  329  A    between atoms: _682  and  _683
REMARK  330  A    between atoms: _683  and  _684
REMARK  331  A    between atoms: _686  and  _687
REMARK  332  A    between atoms: _687  and  _688
REMARK  333  A    between atoms: _691  and  _692
REMARK  334  A    between atoms: _692  and  _693
REMARK  335  A    between atoms: _692  and  _695
REMARK  336  A    between atoms: _695  and  _696
REMARK  337  A    between atoms: _699  and  _700
REMARK  338  A    between atoms: _700  and  _701
REMARK  339  A    between atoms: _700  and  _703
REMARK  340  A    between atoms: _703  and  _704
REMARK  341  A    between atoms: _707  and  _708
REMARK  342  A    between atoms: _708  and  _709
REMARK  343  A    between atoms: _708  and  _711
REMARK  344  A    between atoms: _711  and  _712
REMARK  345  A    between atoms: _715  and  _716
REMARK  346  A    between atoms: _716  and  _717
REMARK  347  A    between atoms: _716  and  _719
REMARK  348  A    between atoms: _719  and  _720
REMARK  349  A    between atoms: _723  and  _724
REMARK  350  A    between atoms: _724  and  _725
REMARK  351  A    between atoms: _724  and  _727
REMARK  352  A    between atoms: _727  and  _728
REMARK  353  A    between atoms: _733  and  _734
REMARK  354  A    between atoms: _733  and  _736
REMARK  355  A    between atoms: _736  and  _739
REMARK  356  A    between atoms: _739  and  _741
REMARK  357  A    between atoms: _741  and  _742
REMARK  358  A    between atoms: _744  and  _745
REMARK  359  A    between atoms: _745  and  _746
REMARK  360  A    between atoms: _748  and  _749
REMARK  361  A    between atoms: _749  and  _750
REMARK  362  A    between atoms: _749  and  _752
REMARK  363  A    between atoms: _755  and  _756
REMARK  364  A    between atoms: _756  and  _757
REMARK  365  A    between atoms: _756  and  _759
REMARK  366  A    between atoms: _759  and  _760
REMARK  367  A    between atoms: _763  and  _764
REMARK  368  A    between atoms: _764  and  _765
REMARK  369  A    between atoms: _768  and  _769
REMARK  370  A    between atoms: _769  and  _770
REMARK  371  A    between atoms: _769  and  _772
REMARK  372  A    between atoms: _772  and  _773
REMARK  373  A    between atoms: _773  and  _774
REMARK  374  A    between atoms: _774  and  _775
REMARK  375  A    between atoms: _777  and  _778
REMARK  376  A    between atoms: _778  and  _779
REMARK  377  A    between atoms: _778  and  _781
REMARK  378  A    between atoms: _783  and  _784
REMARK  379  A    between atoms: _784  and  _785
REMARK  380  A    between atoms: _787  and  _788
REMARK  381  A    between atoms: _788  and  _789
REMARK  382  A    between atoms: _788  and  _791
REMARK  383  A    between atoms: _794  and  _795
REMARK  384  A    between atoms: _795  and  _796
REMARK  385  A    between atoms: _795  and  _798
REMARK  386  A    between atoms: _798  and  _799
REMARK  387  A    between atoms: _799  and  _800
REMARK  388  A    between atoms: _800  and  _801
REMARK  389  A    between atoms: _803  and  _804
REMARK  390  A    between atoms: _804  and  _805
REMARK  391  A    between atoms: _808  and  _809
REMARK  392  A    between atoms: _809  and  _810
REMARK  393  A    between atoms: _809  and  _812
REMARK  394  A    between atoms: _812  and  _813
REMARK  395  A    between atoms: _819  and  _820
REMARK  396  A    between atoms: _820  and  _821
REMARK  397  A    between atoms: _820  and  _823
REMARK  398  A    between atoms: _823  and  _824
REMARK  399  A    between atoms: _824  and  _825
REMARK  400  A    between atoms: _827  and  _828
REMARK  401  A    between atoms: _828  and  _829
REMARK  402  A    between atoms: _828  and  _831
REMARK  403  A    between atoms: _831  and  _832
REMARK  404  A    between atoms: _832  and  _833
REMARK  405  A    between atoms: _836  and  _837
REMARK  406  A    between atoms: _837  and  _838
REMARK  407  A    between atoms: _841  and  _842
REMARK  408  A    between atoms: _842  and  _843
REMARK  409  A    between atoms: _842  and  _845
REMARK  410  A    between atoms: _845  and  _846
REMARK  411  A    between atoms: _849  and  _850
REMARK  412  A    between atoms: _850  and  _851
REMARK  413  A    between atoms: _850  and  _853
REMARK  414  A    between atoms: _853  and  _854
REMARK  415  A    between atoms: _854  and  _855
REMARK  416  A    between atoms: _858  and  _859
REMARK  417  A    between atoms: _859  and  _860
REMARK  418  A    between atoms: _863  and  _864
REMARK  419  A    between atoms: _864  and  _865
REMARK  420  A    between atoms: _867  and  _868
REMARK  421  A    between atoms: _868  and  _869
REMARK  422  A    between atoms: _872  and  _873
REMARK  423  A    between atoms: _873  and  _874
REMARK  424  A    between atoms: _873  and  _876
REMARK  425  A    between atoms: _876  and  _877
REMARK  426  A    between atoms: _880  and  _881
REMARK  427  A    between atoms: _881  and  _882
REMARK  428  A    between atoms: _881  and  _884
REMARK  429  A    between atoms: _884  and  _885
REMARK  430  A    between atoms: _888  and  _889
REMARK  431  A    between atoms: _889  and  _890
REMARK  432  A    between atoms: _889  and  _892
REMARK  433  A    between atoms: _894  and  _895
REMARK  434  A    between atoms: _895  and  _896
REMARK  435  A    between atoms: _895  and  _898
REMARK  436  A    between atoms: _898  and  _899
REMARK  437  A    between atoms: _899  and  _900
REMARK  438  A    between atoms: _902  and  _903
REMARK  439  A    between atoms: _903  and  _904
REMARK  440  A    between atoms: _903  and  _906
REMARK  441  A    between atoms: _906  and  _907
REMARK  442  A    between atoms: _910  and  _911
REMARK  443  A    between atoms: _911  and  _912
REMARK  444  A    between atoms: _914  and  _915
REMARK  445  A    between atoms: _915  and  _916
REMARK  446  A    between atoms: _915  and  _918
REMARK  447  A    between atoms: _918  and  _919
REMARK  448  A    between atoms: _919  and  _920
REMARK  449  A    between atoms: _923  and  _924
REMARK  450  A    between atoms: _924  and  _925
REMARK  451  A    between atoms: _924  and  _927
REMARK  452  A    between atoms: _927  and  _928
REMARK  453  A    between atoms: _934  and  _935
REMARK  454  A    between atoms: _935  and  _936
REMARK  455  A    between atoms: _938  and  _939
REMARK  456  A    between atoms: _939  and  _940
REMARK  457  A    between atoms: _939  and  _942
REMARK  458  A    between atoms: _945  and  _946
REMARK  459  A    between atoms: _946  and  _947
REMARK  460  A    between atoms: _949  and  _950
REMARK  461  A    between atoms: _950  and  _951
REMARK  462  A    between atoms: _950  and  _953
REMARK  463  A    between atoms: _953  and  _954
REMARK  464  A    between atoms: _960  and  _961
REMARK  465  A    between atoms: _961  and  _962
REMARK  466  A    between atoms: _961  and  _964
REMARK  467  A    between atoms: _964  and  _965
REMARK  468  A    between atoms: _972  and  _973
REMARK  469  A    between atoms: _973  and  _974
REMARK  470  A    between atoms: _973  and  _976
REMARK  471  A    between atoms: _978  and  _979
REMARK  472  A    between atoms: _979  and  _980
REMARK  473  A    between atoms: _983  and  _984
REMARK  474  A    between atoms: _984  and  _985
REMARK  475  A    between atoms: _984  and  _987
REMARK  476  A    between atoms: _987  and  _988
REMARK  477  A    between atoms: _995  and  _996
REMARK  478  A    between atoms: _996  and  _997
REMARK  479  A    between atoms: _996  and  _999
REMARK  480  A    between atoms: _999  and  _1000
REMARK  481  A    between atoms: _1003  and  _1004
REMARK  482  A    between atoms: _1004  and  _1005
REMARK  483  A    between atoms: _1004  and  _1007
REMARK  484  A    between atoms: _1010  and  _1011
REMARK  485  A    between atoms: _1011  and  _1012
REMARK  486  A    between atoms: _1015  and  _1016
REMARK  487  A    between atoms: _1016  and  _1017
REMARK  488  A    between atoms: _1016  and  _1019
REMARK  489  A    between atoms: _1019  and  _1020
REMARK  490  A    between atoms: _1020  and  _1021
REMARK  491  A    between atoms: _1024  and  _1025
REMARK  492  A    between atoms: _1025  and  _1026
REMARK  493  A    between atoms: _1025  and  _1028
REMARK  494  A    between atoms: _1028  and  _1029
REMARK  495  A    between atoms: _1029  and  _1030
REMARK  496  A    between atoms: _1030  and  _1031
REMARK  497  A    between atoms: _1033  and  _1034
REMARK  498  A    between atoms: _1034  and  _1035
REMARK  499  A    between atoms: _1034  and  _1037
REMARK  500  A    between atoms: _1040  and  _1041
REMARK  501  A    between atoms: _1041  and  _1042
REMARK  502  A    between atoms: _1041  and  _1044
REMARK  503  A    between atoms: _1047  and  _1048
REMARK  504  A    between atoms: _1048  and  _1049
REMARK  505  A    between atoms: _1048  and  _1051
REMARK  506  A    between atoms: _1054  and  _1055
REMARK  507  A    between atoms: _1055  and  _1056
REMARK  508  A    between atoms: _1055  and  _1058
REMARK  509  A    between atoms: _1058  and  _1059
REMARK  510  A    between atoms: _1062  and  _1063
REMARK  511  A    between atoms: _1063  and  _1064
REMARK  512  A    between atoms: _1063  and  _1066
REMARK  513  A    between atoms: _1069  and  _1070
REMARK  514  A    between atoms: _1070  and  _1071
REMARK  515  A    between atoms: _1070  and  _1073
REMARK  516  A    between atoms: _1073  and  _1074
REMARK  517  A    between atoms: _1074  and  _1075
REMARK  518  A    between atoms: _1075  and  _1076
REMARK  519  A    between atoms: _1078  and  _1079
REMARK  520  A    between atoms: _1079  and  _1080
REMARK  521  A    between atoms: _1079  and  _1082
REMARK  522  A    between atoms: _1082  and  _1083
REMARK  523  A    between atoms: _1088  and  _1089
REMARK  524  A    between atoms: _1089  and  _1090
REMARK  525  A    between atoms: _1089  and  _1092
REMARK  526  A    between atoms: _1092  and  _1093
REMARK  527  A    between atoms: _1096  and  _1097
REMARK  528  A    between atoms: _1097  and  _1098
REMARK  529  A    between atoms: _1097  and  _1100
REMARK  530  A    between atoms: _1100  and  _1101
REMARK  531  A    between atoms: _1104  and  _1105
REMARK  532  A    between atoms: _1105  and  _1106
REMARK  533  A    between atoms: _1105  and  _1108
REMARK  534  A    between atoms: _1108  and  _1109
REMARK  535  A    between atoms: _1112  and  _1113
REMARK  536  A    between atoms: _1113  and  _1114
REMARK  537  A    between atoms: _1113  and  _1116
REMARK  538  A    between atoms: _1116  and  _1117
REMARK  539  A    between atoms: _1117  and  _1118
REMARK  540  A    between atoms: _1121  and  _1122
REMARK  541  A    between atoms: _1122  and  _1123
REMARK  542  A    between atoms: _1122  and  _1125
REMARK  543  A    between atoms: _1125  and  _1126
REMARK  544  A    between atoms: _1126  and  _1127
REMARK  545  A    between atoms: _1130  and  _1131
REMARK  546  A    between atoms: _1131  and  _1132
REMARK  547  A    between atoms: _1131  and  _1134
REMARK  548  A    between atoms: _1134  and  _1135
REMARK  549  A    between atoms: _1142  and  _1143
REMARK  550  A    between atoms: _1143  and  _1144
REMARK  551  A    between atoms: _1147  and  _1148
REMARK  552  A    between atoms: _1148  and  _1149
REMARK  553  A    between atoms: _1148  and  _1151
REMARK  554  A    between atoms: _1151  and  _1152
REMARK  555  A    between atoms: _1161  and  _1162
REMARK  556  A    between atoms: _1162  and  _1163
REMARK  557  A    between atoms: _1162  and  _1165
REMARK  558  A    between atoms: _1165  and  _1166
REMARK  559  A    between atoms: _1166  and  _1167
REMARK  560  A    between atoms: _1170  and  _1171
REMARK  561  A    between atoms: _1171  and  _1172
REMARK  562  A    between atoms: _1171  and  _1174
REMARK  563  A    between atoms: _1176  and  _1177
REMARK  564  A    between atoms: _1177  and  _1178
REMARK  565  A    between atoms: _1177  and  _1180
REMARK  566  A    between atoms: _1182  and  _1183
REMARK  567  A    between atoms: _1183  and  _1184
REMARK  568  A    between atoms: _1187  and  _1188
REMARK  569  A    between atoms: _1188  and  _1189
REMARK  570  A    between atoms: _1191  and  _1192
REMARK  571  A    between atoms: _1192  and  _1193
REMARK  572  A    between atoms: _1195  and  _1196
REMARK  573  A    between atoms: _1196  and  _1197
REMARK  574  A    between atoms: _1196  and  _1199
REMARK  575  A    between atoms: _1201  and  _1202
REMARK  576  A    between atoms: _1202  and  _1203
REMARK  577  A    between atoms: _1202  and  _1205
REMARK  578  A    between atoms: _1205  and  _1206
REMARK  579  A    between atoms: _1212  and  _1213
REMARK  580  A    between atoms: _1213  and  _1214
REMARK  581  A    between atoms: _1213  and  _1216
REMARK  582  A    between atoms: _1219  and  _1220
REMARK  583  A    between atoms: _1220  and  _1221
REMARK  584  A    between atoms: _1220  and  _1223
REMARK  585  A    between atoms: _1226  and  _1227
REMARK  586  A    between atoms: _1227  and  _1228
REMARK  587  A    between atoms: _1227  and  _1230
REMARK  588  A    between atoms: _1230  and  _1231
REMARK  589  A    between atoms: _1231  and  _1232
REMARK  590  A    between atoms: _1232  and  _1233
REMARK  591  A    between atoms: _1237  and  _1238
REMARK  592  A    between atoms: _1238  and  _1239
REMARK  593  A    between atoms: _1238  and  _1241
REMARK  594  A    between atoms: _1244  and  _1245
REMARK  595  A    between atoms: _1245  and  _1246
REMARK  596  A    between atoms: _1245  and  _1248
REMARK  597  A    between atoms: _1248  and  _1249
REMARK  598  A    between atoms: _1252  and  _1253
REMARK  599  A    between atoms: _1253  and  _1254
REMARK  600  A    between atoms: _1253  and  _1256
REMARK  601  A    between atoms: _1259  and  _1260
REMARK  602  A    between atoms: _1260  and  _1261
REMARK  603  A    between atoms: _1263  and  _1264
REMARK  604  A    between atoms: _1264  and  _1265
REMARK  605  A    between atoms: _1264  and  _1267
REMARK  606  A    between atoms: _1267  and  _1268
REMARK  607  A    between atoms: _1268  and  _1269
REMARK  608  A    between atoms: _1273  and  _1274
REMARK  609  A    between atoms: _1279  and  _1280
REMARK  610  A    between atoms: _1280  and  _1285
REMARK  611  A    between atoms: _1285  and  _1286
REMARK  612  A    between atoms: _1286  and  _1287
REMARK  613  A    between atoms: _1287  and  _1289
REMARK  614  A    between atoms: _1292  and  _1293
REMARK  615  A    between atoms: _1293  and  _1294
REMARK  616  A    between atoms: _1296  and  _1297
REMARK  617  A    between atoms: _1297  and  _1298
REMARK  618  A    between atoms: _1297  and  _1300
REMARK  619  A    between atoms: _1300  and  _1301
REMARK  620  A    between atoms: _1301  and  _1302
REMARK  621  A    between atoms: _1302  and  _1303
REMARK  622  A    between atoms: _1307  and  _1308
REMARK  623  A    between atoms: _1308  and  _1309
REMARK  624  A    between atoms: _1311  and  _1312
REMARK  625  A    between atoms: _1312  and  _1313
REMARK  626  A    between atoms: _1312  and  _1315
REMARK  627  A    between atoms: _1318  and  _1319
REMARK  628  A    between atoms: _1319  and  _1320
REMARK  629  A    between atoms: _1319  and  _1322
REMARK  630  A    between atoms: _1322  and  _1323
REMARK  631  A    between atoms: _1323  and  _1324
REMARK  632  A    between atoms: _1324  and  _1325
REMARK  633  A    between atoms: _1327  and  _1328
REMARK  634  A    between atoms: _1328  and  _1329
REMARK  635  A    between atoms: _1328  and  _1331
REMARK  636  A    between atoms: _1334  and  _1335
REMARK  637  A    between atoms: _1335  and  _1336
REMARK  638  A    between atoms: _1335  and  _1338
REMARK  639  A    between atoms: _1338  and  _1339
REMARK  640  A    between atoms: _1342  and  _1343
REMARK  641  A    between atoms: _1343  and  _1344
REMARK  642  A    between atoms: _1343  and  _1346
REMARK  643  A    between atoms: _1346  and  _1347
REMARK  644  A    between atoms: _1350  and  _1351
REMARK  645  A    between atoms: _1351  and  _1352
REMARK  646  A    between atoms: _1351  and  _1354
REMARK  647  A    between atoms: _1354  and  _1355
REMARK  648  A    between atoms: _1360  and  _1361
REMARK  649  A    between atoms: _1361  and  _1362
REMARK  650  A    between atoms: _1361  and  _1364
REMARK  651  A    between atoms: _1364  and  _1365
REMARK  652  A    between atoms: _1368  and  _1369
REMARK  653  A    between atoms: _1369  and  _1370
REMARK  654  A    between atoms: _1369  and  _1372
REMARK  655  A    between atoms: _1372  and  _1373
REMARK  656  A    between atoms: _1373  and  _1374
REMARK  657  A    between atoms: _1374  and  _1375
REMARK  658  A    between atoms: _1377  and  _1378
REMARK  659  A    between atoms: _1378  and  _1379
REMARK  660  A    between atoms: _1378  and  _1381
REMARK  661  A    between atoms: _1381  and  _1382
REMARK  662  A    between atoms: _1382  and  _1383
REMARK  663  A    between atoms: _1386  and  _1387
REMARK  664  A    between atoms: _1387  and  _1388
REMARK  665  A    between atoms: _1387  and  _1390
REMARK  666  A    between atoms: _1390  and  _1391
REMARK  667  A    between atoms: _1394  and  _1395
REMARK  668  A    between atoms: _1395  and  _1396
REMARK  669  A    between atoms: _1395  and  _1398
REMARK  670  A    between atoms: _1398  and  _1399
REMARK  671  A    between atoms: _1399  and  _1400
REMARK  672  A    between atoms: _1403  and  _1404
REMARK  673  A    between atoms: _1404  and  _1405
REMARK  674  A    between atoms: _1404  and  _1407
REMARK  675  A    between atoms: _1410  and  _1411
REMARK  676  A    between atoms: _1411  and  _1412
REMARK  677  A    between atoms: _1411  and  _1414
REMARK  678  A    between atoms: _1414  and  _1415
REMARK  679  A    between atoms: _1415  and  _1416
REMARK  680  A    between atoms: _1419  and  _1420
REMARK  681  A    between atoms: _1420  and  _1421
REMARK  682  A    between atoms: _1420  and  _1423
REMARK  683  A    between atoms: _1423  and  _1424
REMARK  684  A    between atoms: _1431  and  _1432
REMARK  685  A    between atoms: _1432  and  _1433
REMARK  686  A    between atoms: _1432  and  _1435
REMARK  687  A    between atoms: _1435  and  _1436
REMARK  688  A    between atoms: _1439  and  _1440
REMARK  689  A    between atoms: _1440  and  _1441
REMARK  690  A    between atoms: _1440  and  _1443
REMARK  691  A    between atoms: _1443  and  _1444
REMARK  692  A    between atoms: _1444  and  _1445
REMARK  693  A    between atoms: _1448  and  _1449
REMARK  694  A    between atoms: _1449  and  _1450
REMARK  695  A    between atoms: _1449  and  _1452
REMARK  696  A    between atoms: _1452  and  _1453
REMARK  697  A    between atoms: _1453  and  _1454
REMARK  698  A    between atoms: _1457  and  _1458
REMARK  699  A    between atoms: _1458  and  _1459
REMARK  700  A    between atoms: _1458  and  _1461
REMARK  701  A    between atoms: _1461  and  _1462
REMARK  702  A    between atoms: _1462  and  _1463
REMARK  703  A    between atoms: _1463  and  _1464
REMARK  704  A    between atoms: _1468  and  _1469
REMARK  705  A    between atoms: _1469  and  _1470
REMARK  706  A    between atoms: _1469  and  _1472
REMARK  707  A    between atoms: _1472  and  _1473
REMARK  708  A    between atoms: _1473  and  _1474
REMARK  709  A    between atoms: _1474  and  _1475
REMARK  710  A    between atoms: _1479  and  _1480
REMARK  711  A    between atoms: _1480  and  _1481
REMARK  712  A    between atoms: _1480  and  _1483
REMARK  713  A    between atoms: _1483  and  _1484
REMARK  714  A    between atoms: _1487  and  _1488
REMARK  715  A    between atoms: _1488  and  _1489
REMARK  716  A    between atoms: _1488  and  _1491
REMARK  717  A    between atoms: _1491  and  _1492
REMARK  718  A    between atoms: _1492  and  _1493
REMARK  719  A    between atoms: _1493  and  _1494
REMARK  720  A    between atoms: _1496  and  _1497
REMARK  721  A    between atoms: _1497  and  _1498
REMARK  722  A    between atoms: _1497  and  _1500
REMARK  723  A    between atoms: _1500  and  _1501
REMARK  724  A    between atoms: _1501  and  _1502
REMARK  725  A    between atoms: _1505  and  _1506
REMARK  726  A    between atoms: _1506  and  _1507
REMARK  727  A    between atoms: _1506  and  _1509
REMARK  728  A    between atoms: _1509  and  _1510
REMARK  729  A    between atoms: _1513  and  _1514
REMARK  730  A    between atoms: _1514  and  _1515
REMARK  731  A    between atoms: _1514  and  _1517
REMARK  732  A    between atoms: _1520  and  _1521
REMARK  733  A    between atoms: _1521  and  _1522
REMARK  734  A    between atoms: _1521  and  _1524
REMARK  735  A    between atoms: _1524  and  _1525
REMARK  736  A    between atoms: _1525  and  _1526
REMARK  737  A    between atoms: _1526  and  _1527
REMARK  738  A    between atoms: _1529  and  _1530
REMARK  739  A    between atoms: _1530  and  _1531
REMARK  740  A    between atoms: _1530  and  _1533
REMARK  741  A    between atoms: _1533  and  _1534
REMARK  742  A    between atoms: _1534  and  _1535
REMARK  743  A    between atoms: _1535  and  _1536
REMARK  744  A    between atoms: _1538  and  _1539
REMARK  745  A    between atoms: _1539  and  _1540
REMARK  746  A    between atoms: _1539  and  _1542
REMARK  747  A    between atoms: _1542  and  _1543
REMARK  748  A    between atoms: _1548  and  _1549
REMARK  749  A    between atoms: _1549  and  _1550
REMARK  750  A    between atoms: _1549  and  _1552
REMARK  751  A    between atoms: _1554  and  _1555
REMARK  752  A    between atoms: _1555  and  _1556
REMARK  753  A    between atoms: _1555  and  _1558
REMARK  754  A    between atoms: _1558  and  _1559
REMARK  755  A    between atoms: _1559  and  _1560
REMARK  756  A    between atoms: _1563  and  _1564
REMARK  757  A    between atoms: _1564  and  _1565
REMARK  758  A    between atoms: _1564  and  _1567
REMARK  759  A    between atoms: _1567  and  _1568
REMARK  760  A    between atoms: _1574  and  _1575
REMARK  761  A    between atoms: _1575  and  _1576
REMARK  762  A    between atoms: _1575  and  _1578
REMARK  763  A    between atoms: _1578  and  _1579
REMARK  764  A    between atoms: _1582  and  _1583
REMARK  765  A    between atoms: _1583  and  _1584
REMARK  766  A    between atoms: _1586  and  _1587
REMARK  767  A    between atoms: _1587  and  _1588
REMARK  768  A    between atoms: _1587  and  _1590
REMARK  769  A    between atoms: _1590  and  _1591
REMARK  770  A    between atoms: _1599  and  _1600
REMARK  771  A    between atoms: _1605  and  _1606
REMARK  772  A    between atoms: _1606  and  _1607
REMARK  773  A    between atoms: _1606  and  _1609
REMARK  774  A    between atoms: _1609  and  _1610
REMARK  775  A    between atoms: _1613  and  _1614
REMARK  776  A    between atoms: _1614  and  _1615
REMARK  777  A    between atoms: _1614  and  _1617
REMARK  778  A    between atoms: _1620  and  _1621
REMARK  779  A    between atoms: _1621  and  _1622
REMARK  780  A    between atoms: _1621  and  _1624
REMARK  781  A    between atoms: _1624  and  _1625
REMARK  782  A    between atoms: _1628  and  _1629
REMARK  783  A    between atoms: _1629  and  _1630
REMARK  784  A    between atoms: _1629  and  _1632
REMARK  785  A    between atoms: _1632  and  _1633
REMARK  786  A    between atoms: _1639  and  _1640
REMARK  787  A    between atoms: _1640  and  _1641
REMARK  788  A    between atoms: _1640  and  _1643
REMARK  789  A    between atoms: _1646  and  _1647
REMARK  790  A    between atoms: _1647  and  _1648
REMARK  791  A    between atoms: _1647  and  _1650
REMARK  792  A    between atoms: _1650  and  _1651
REMARK  793  A    between atoms: _1651  and  _1652
REMARK  794  A    between atoms: _1655  and  _1656
REMARK  795  A    between atoms: _1656  and  _1657
REMARK  796  A    between atoms: _1656  and  _1659
REMARK  797  A    between atoms: _1659  and  _1660
REMARK  798  A    between atoms: _1660  and  _1661
REMARK                            x       y       z     vdW  Elec       q    Type
REMARK                         _______ _______ _______ _____ _____    ______ ____
ROOT
ATOM      1  C   UNL     1      14.944 -13.306  29.292  0.00  0.00    +0.005 C 
ATOM      2  C   UNL     1      14.140 -13.301  27.981  0.00  0.00    +0.026 C 
ENDROOT
BRANCH   2   3
ATOM      3  C   UNL     1      13.849 -11.873  27.603  0.00  0.00    -0.026 C 
ATOM      4  C   UNL     1      14.713 -10.956  27.152  0.00  0.00    -0.005 C 
ENDBRANCH   2   3
TORSDOF 1
REMARK  Name = /Users/mlugowska/PhD/ML_residence_time_prediction/protein_files/5NYI_protein.pdb
REMARK  798 active torsions:
REMARK  status: ('A' for Active; 'I' for Inactive)
REMARK    1  A    between atoms: _2  and  _3
REMARK    2  A    between atoms: _2  and  _5
REMARK    3  A    between atoms: _5  and  _6
REMARK    4  A    between atoms: _6  and  _7
REMARK    5  A    between atoms: _10  and  _11
REMARK    6  A    between atoms: _11  and  _12
REMARK    7  A    between atoms: _11  and  _14
REMARK    8  A    between atoms: _17  and  _18
REMARK    9  A    between atoms: _18  and  _19
REMARK   10  A    between atoms: _18  and  _21
REMARK   11  A    between atoms: _21  and  _22
REMARK   12  A    between atoms: _22  and  _23
REMARK   13  A    between atoms: _26  and  _27
REMARK   14  A    between atoms: _27  and  _28
REMARK   15  A    between atoms: _27  and  _30
REMARK   16  A    between atoms: _33  and  _34
REMARK   17  A    between atoms: _34  and  _35
REMARK   18  A    between atoms: _34  and  _37
REMARK   19  A    between atoms: _37  and  _38
REMARK   20  A    between atoms: _44  and  _45
REMARK   21  A    between atoms: _45  and  _46
REMARK   22  A    between atoms: _49  and  _50
REMARK   23  A    between atoms: _50  and  _51
REMARK   24  A    between atoms: _50  and  _53
REMARK   25  A    between atoms: _53  and  _54
REMARK   26  A    between atoms: _60  and  _61
REMARK   27  A    between atoms: _61  and  _62
REMARK   28  A    between atoms: _61  and  _64
REMARK   29  A    between atoms: _64  and  _65
REMARK   30  A    between atoms: _65  and  _66
REMARK   31  A    between atoms: _69  and  _70
REMARK   32  A    between atoms: _70  and  _71
REMARK   33  A    between atoms: _74  and  _75
REMARK   34  A    between atoms: _75  and  _76
REMARK   35  A    between atoms: _75  and  _78
REMARK   36  A    between atoms: _78  and  _79
REMARK   37  A    between atoms: _79  and  _80
REMARK   38  A    between atoms: _83  and  _84
REMARK   39  A    between atoms: _84  and  _86
REMARK   40  A    between atoms: _88  and  _90
REMARK   41  A    between atoms: _96  and  _97
REMARK   42  A    between atoms: _97  and  _98
REMARK   43  A    between atoms: _101  and  _102
REMARK   44  A    between atoms: _102  and  _103
REMARK   45  A    between atoms: _102  and  _105
REMARK   46  A    between atoms: _105  and  _106
REMARK   47  A    between atoms: _106  and  _107
REMARK   48  A    between atoms: _110  and  _111
REMARK   49  A    between atoms: _111  and  _112
REMARK   50  A    between atoms: _111  and  _114
REMARK   51  A    between atoms: _114  and  _115
REMARK   52  A    between atoms: _118  and  _119
REMARK   53  A    between atoms: _119  and  _120
REMARK   54  A    between atoms: _119  and  _122
REMARK   55  A    between atoms: _122  and  _123
REMARK   56  A    between atoms: _123  and  _124
REMARK   57  A    between atoms: _126  and  _127
REMARK   58  A    between atoms: _127  and  _128
REMARK   59  A    between atoms: _127  and  _130
REMARK   60  A    between atoms: _132  and  _133
REMARK   61  A    between atoms: _133  and  _134
REMARK   62  A    between atoms: _133  and  _136
REMARK   63  A    between atoms: _136  and  _137
REMARK   64  A    between atoms: _140  and  _141
REMARK   65  A    between atoms: _141  and  _142
REMARK   66  A    between atoms: _141  and  _144
REMARK   67  A    between atoms: _144  and  _145
REMARK   68  A    between atoms: _148  and  _149
REMARK   69  A    between atoms: _149  and  _150
REMARK   70  A    between atoms: _149  and  _152
REMARK   71  A    between atoms: _152  and  _153
REMARK   72  A    between atoms: _156  and  _157
REMARK   73  A    between atoms: _157  and  _158
REMARK   74  A    between atoms: _157  and  _160
REMARK   75  A    between atoms: _160  and  _161
REMARK   76  A    between atoms: _164  and  _165
REMARK   77  A    between atoms: _165  and  _166
REMARK   78  A    between atoms: _165  and  _168
REMARK   79  A    between atoms: _171  and  _172
REMARK   80  A    between atoms: _172  and  _173
REMARK   81  A    between atoms: _172  and  _175
REMARK   82  A    between atoms: _175  and  _176
REMARK   83  A    between atoms: _182  and  _183
REMARK   84  A    between atoms: _183  and  _184
REMARK   85  A    between atoms: _183  and  _186
REMARK   86  A    between atoms: _186  and  _187
REMARK   87  A    between atoms: _194  and  _195
REMARK   88  A    between atoms: _195  and  _196
REMARK   89  A    between atoms: _195  and  _198
REMARK   90  A    between atoms: _200  and  _201
REMARK   91  A    between atoms: _201  and  _202
REMARK   92  A    between atoms: _201  and  _204
REMARK   93  A    between atoms: _204  and  _205
REMARK   94  A    between atoms: _208  and  _209
REMARK   95  A    between atoms: _209  and  _210
REMARK   96  A    between atoms: _209  and  _212
REMARK   97  A    between atoms: _212  and  _213
REMARK   98  A    between atoms: _213  and  _214
REMARK   99  A    between atoms: _214  and  _215
REMARK  100  A    between atoms: _217  and  _218
REMARK  101  A    between atoms: _218  and  _219
REMARK  102  A    between atoms: _218  and  _221
REMARK  103  A    between atoms: _221  and  _222
REMARK  104  A    between atoms: _222  and  _223
REMARK  105  A    between atoms: _226  and  _227
REMARK  106  A    between atoms: _227  and  _228
REMARK  107  A    between atoms: _227  and  _230
REMARK  108  A    between atoms: _230  and  _231
REMARK  109  A    between atoms: _234  and  _235
REMARK  110  A    between atoms: _235  and  _236
REMARK  111  A    between atoms: _235  and  _238
REMARK  112  A    between atoms: _238  and  _239
REMARK  113  A    between atoms: _245  and  _246
REMARK  114  A    between atoms: _246  and  _247
REMARK  115  A    between atoms: _246  and  _249
REMARK  116  A    between atoms: _249  and  _250
REMARK  117  A    between atoms: _253  and  _254
REMARK  118  A    between atoms: _254  and  _255
REMARK  119  A    between atoms: _254  and  _257
REMARK  120  A    between atoms: _257  and  _258
REMARK  121  A    between atoms: _258  and  _259
REMARK  122  A    between atoms: _259  and  _260
REMARK  123  A    between atoms: _264  and  _265
REMARK  124  A    between atoms: _265  and  _266
REMARK  125  A    between atoms: _265  and  _268
REMARK  126  A    between atoms: _268  and  _269
REMARK  127  A    between atoms: _269  and  _270
REMARK  128  A    between atoms: _273  and  _274
REMARK  129  A    between atoms: _274  and  _275
REMARK  130  A    between atoms: _274  and  _277
REMARK  131  A    between atoms: _277  and  _278
REMARK  132  A    between atoms: _281  and  _282
REMARK  133  A    between atoms: _282  and  _283
REMARK  134  A    between atoms: _282  and  _285
REMARK  135  A    between atoms: _285  and  _286
REMARK  136  A    between atoms: _289  and  _290
REMARK  137  A    between atoms: _290  and  _295
REMARK  138  A    between atoms: _298  and  _299
REMARK  139  A    between atoms: _299  and  _300
REMARK  140  A    between atoms: _299  and  _302
REMARK  141  A    between atoms: _302  and  _303
REMARK  142  A    between atoms: _306  and  _307
REMARK  143  A    between atoms: _307  and  _308
REMARK  144  A    between atoms: _307  and  _310
REMARK  145  A    between atoms: _312  and  _313
REMARK  146  A    between atoms: _313  and  _314
REMARK  147  A    between atoms: _313  and  _316
REMARK  148  A    between atoms: _318  and  _319
REMARK  149  A    between atoms: _319  and  _320
REMARK  150  A    between atoms: _319  and  _322
REMARK  151  A    between atoms: _322  and  _323
REMARK  152  A    between atoms: _326  and  _327
REMARK  153  A    between atoms: _327  and  _328
REMARK  154  A    between atoms: _331  and  _332
REMARK  155  A    between atoms: _332  and  _333
REMARK  156  A    between atoms: _332  and  _335
REMARK  157  A    between atoms: _335  and  _336
REMARK  158  A    between atoms: _339  and  _340
REMARK  159  A    between atoms: _340  and  _341
REMARK  160  A    between atoms: _340  and  _343
REMARK  161  A    between atoms: _343  and  _344
REMARK  162  A    between atoms: _347  and  _348
REMARK  163  A    between atoms: _348  and  _349
REMARK  164  A    between atoms: _348  and  _351
REMARK  165  A    between atoms: _351  and  _352
REMARK  166  A    between atoms: _352  and  _353
REMARK  167  A    between atoms: _353  and  _354
REMARK  168  A    between atoms: _356  and  _357
REMARK  169  A    between atoms: _357  and  _358
REMARK  170  A    between atoms: _357  and  _360
REMARK  171  A    between atoms: _360  and  _361
REMARK  172  A    between atoms: _364  and  _365
REMARK  173  A    between atoms: _365  and  _366
REMARK  174  A    between atoms: _365  and  _368
REMARK  175  A    between atoms: _368  and  _369
REMARK  176  A    between atoms: _369  and  _370
REMARK  177  A    between atoms: _370  and  _371
REMARK  178  A    between atoms: _375  and  _376
REMARK  179  A    between atoms: _376  and  _377
REMARK  180  A    between atoms: _376  and  _379
REMARK  181  A    between atoms: _379  and  _380
REMARK  182  A    between atoms: _387  and  _388
REMARK  183  A    between atoms: _388  and  _389
REMARK  184  A    between atoms: _388  and  _391
REMARK  185  A    between atoms: _391  and  _392
REMARK  186  A    between atoms: _392  and  _393
REMARK  187  A    between atoms: _396  and  _397
REMARK  188  A    between atoms: _397  and  _398
REMARK  189  A    between atoms: _397  and  _400
REMARK  190  A    between atoms: _403  and  _404
REMARK  191  A    between atoms: _404  and  _405
REMARK  192  A    between atoms: _404  and  _407
REMARK  193  A    between atoms: _407  and  _408
REMARK  194  A    between atoms: _411  and  _412
REMARK  195  A    between atoms: _412  and  _413
REMARK  196  A    between atoms: _412  and  _415
REMARK  197  A    between atoms: _418  and  _419
REMARK  198  A    between atoms: _419  and  _420
REMARK  199  A    between atoms: _419  and  _422
REMARK  200  A    between atoms: _422  and  _423
REMARK  201  A    between atoms: _427  and  _428
REMARK  202  A    between atoms: _433  and  _434
REMARK  203  A    between atoms: _434  and  _435
REMARK  204  A    between atoms: _434  and  _437
REMARK  205  A    between atoms: _439  and  _440
REMARK  206  A    between atoms: _440  and  _441
REMARK  207  A    between atoms: _440  and  _443
REMARK  208  A    between atoms: _443  and  _444
REMARK  209  A    between atoms: _444  and  _445
REMARK  210  A    between atoms: _445  and  _446
REMARK  211  A    between atoms: _448  and  _449
REMARK  212  A    between atoms: _449  and  _450
REMARK  213  A    between atoms: _449  and  _452
REMARK  214  A    between atoms: _452  and  _453
REMARK  215  A    between atoms: _456  and  _457
REMARK  216  A    between atoms: _457  and  _458
REMARK  217  A    between atoms: _457  and  _460
REMARK  218  A    between atoms: _460  and  _461
REMARK  219  A    between atoms: _464  and  _465
REMARK  220  A    between atoms: _465  and  _466
REMARK  221  A    between atoms: _465  and  _468
REMARK  222  A    between atoms: _470  and  _471
REMARK  223  A    between atoms: _471  and  _472
REMARK  224  A    between atoms: _474  and  _475
REMARK  225  A    between atoms: _475  and  _476
REMARK  226  A    between atoms: _475  and  _478
REMARK  227  A    between atoms: _478  and  _479
REMARK  228  A    between atoms: _479  and  _480
REMARK  229  A    between atoms: _480  and  _481
REMARK  230  A    between atoms: _483  and  _484
REMARK  231  A    between atoms: _484  and  _485
REMARK  232  A    between atoms: _484  and  _487
REMARK  233  A    between atoms: _487  and  _488
REMARK  234  A    between atoms: _488  and  _489
REMARK  235  A    between atoms: _492  and  _493
REMARK  236  A    between atoms: _493  and  _494
REMARK  237  A    between atoms: _493  and  _496
REMARK  238  A    between atoms: _496  and  _497
REMARK  239  A    between atoms: _500  and  _501
REMARK  240  A    between atoms: _501  and  _502
REMARK  241  A    between atoms: _501  and  _504
REMARK  242  A    between atoms: _504  and  _505
REMARK  243  A    between atoms: _510  and  _511
REMARK  244  A    between atoms: _511  and  _512
REMARK  245  A    between atoms: _511  and  _514
REMARK  246  A    between atoms: _514  and  _515
REMARK  247  A    between atoms: _518  and  _519
REMARK  248  A    between atoms: _519  and  _520
REMARK  249  A    between atoms: _519  and  _522
REMARK  250  A    between atoms: _522  and  _523
REMARK  251  A    between atoms: _526  and  _527
REMARK  252  A    between atoms: _527  and  _528
REMARK  253  A    between atoms: _527  and  _530
REMARK  254  A    between atoms: _530  and  _531
REMARK  255  A    between atoms: _534  and  _535
REMARK  256  A    between atoms: _535  and  _536
REMARK  257  A    between atoms: _535  and  _538
REMARK  258  A    between atoms: _538  and  _539
REMARK  259  A    between atoms: _543  and  _544
REMARK  260  A    between atoms: _549  and  _550
REMARK  261  A    between atoms: _550  and  _551
REMARK  262  A    between atoms: _550  and  _553
REMARK  263  A    between atoms: _553  and  _554
REMARK  264  A    between atoms: _557  and  _558
REMARK  265  A    between atoms: _558  and  _559
REMARK  266  A    between atoms: _558  and  _561
REMARK  267  A    between atoms: _561  and  _562
REMARK  268  A    between atoms: _562  and  _563
REMARK  269  A    between atoms: _563  and  _564
REMARK  270  A    between atoms: _566  and  _567
REMARK  271  A    between atoms: _567  and  _568
REMARK  272  A    between atoms: _567  and  _570
REMARK  273  A    between atoms: _570  and  _571
REMARK  274  A    between atoms: _571  and  _572
REMARK  275  A    between atoms: _575  and  _576
REMARK  276  A    between atoms: _576  and  _577
REMARK  277  A    between atoms: _576  and  _579
REMARK  278  A    between atoms: _579  and  _580
REMARK  279  A    between atoms: _583  and  _584
REMARK  280  A    between atoms: _584  and  _585
REMARK  281  A    between atoms: _584  and  _587
REMARK  282  A    between atoms: _587  and  _588
REMARK  283  A    between atoms: _588  and  _589
REMARK  284  A    between atoms: _589  and  _590
REMARK  285  A    between atoms: _594  and  _595
REMARK  286  A    between atoms: _595  and  _596
REMARK  287  A    between atoms: _595  and  _598
REMARK  288  A    between atoms: _601  and  _602
REMARK  289  A    between atoms: _602  and  _603
REMARK  290  A    between atoms: _602  and  _605
REMARK  291  A    between atoms: _605  and  _606
REMARK  292  A    between atoms: _609  and  _610
REMARK  293  A    between atoms: _610  and  _611
REMARK  294  A    between atoms: _610  and  _613
REMARK  295  A    between atoms: _616  and  _617
REMARK  296  A    between atoms: _617  and  _618
REMARK  297  A    between atoms: _617  and  _620
REMARK  298  A    between atoms: _620  and  _621
REMARK  299  A    between atoms: _624  and  _625
REMARK  300  A    between atoms: _625  and  _626
REMARK  301  A    between atoms: _625  and  _628
REMARK  302  A    between atoms: _631  and  _632
REMARK  303  A    between atoms: _632  and  _633
REMARK  304  A    between atoms: _632  and  _635
REMARK  305  A    between atoms: _635  and  _636
REMARK  306  A    between atoms: _639  and  _640
REMARK  307  A    between atoms: _640  and  _641
REMARK  308  A    between atoms: _640  and  _643
REMARK  309  A    between atoms: _646  and  _647
REMARK  310  A    between atoms: _647  and  _648
REMARK  311  A    between atoms: _650  and  _651
REMARK  312  A    between atoms: _651  and  _652
REMARK  313  A    between atoms: _651  and  _654
REMARK  314  A    between atoms: _654  and  _655
REMARK  315  A    between atoms: _658  and  _659
REMARK  316  A    between atoms: _659  and  _660
REMARK  317  A    between atoms: _662  and  _663
REMARK  318  A    between atoms: _663  and  _664
REMARK  319  A    between atoms: _663  and  _666
REMARK  320  A    between atoms: _666  and  _667
REMARK  321  A    between atoms: _667  and  _668
REMARK  322  A    between atoms: _670  and  _671
REMARK  323  A    between atoms: _671  and  _672
REMARK  324  A    between atoms: _671  and  _674
REMARK  325  A    between atoms: _677  and  _678
REMARK  326  A    between atoms: _678  and  _679
REMARK  327  A    between atoms: _678  and  _681
REMARK  328  A    between atoms: _681  and  _682
REMARK  329  A    between atoms: _682  and  _683
REMARK  330  A    between atoms: _683  and  _684
REMARK  331  A    between atoms: _686  and  _687
REMARK  332  A    between atoms: _687  and  _688
REMARK  333  A    between atoms: _691  and  _692
REMARK  334  A    between atoms: _692  and  _693
REMARK  335  A    between atoms: _692  and  _695
REMARK  336  A    between atoms: _695  and  _696
REMARK  337  A    between atoms: _699  and  _700
REMARK  338  A    between atoms: _700  and  _701
REMARK  339  A    between atoms: _700  and  _703
REMARK  340  A    between atoms: _703  and  _704
REMARK  341  A    between atoms: _707  and  _708
REMARK  342  A    between atoms: _708  and  _709
REMARK  343  A    between atoms: _708  and  _711
REMARK  344  A    between atoms: _711  and  _712
REMARK  345  A    between atoms: _715  and  _716
REMARK  346  A    between atoms: _716  and  _717
REMARK  347  A    between atoms: _716  and  _719
REMARK  348  A    between atoms: _719  and  _720
REMARK  349  A    between atoms: _723  and  _724
REMARK  350  A    between atoms: _724  and  _725
REMARK  351  A    between atoms: _724  and  _727
REMARK  352  A    between atoms: _727  and  _728
REMARK  353  A    between atoms: _733  and  _734
REMARK  354  A    between atoms: _733  and  _736
REMARK  355  A    between atoms: _736  and  _739
REMARK  356  A    between atoms: _739  and  _741
REMARK  357  A    between atoms: _741  and  _742
REMARK  358  A    between atoms: _744  and  _745
REMARK  359  A    between atoms: _745  and  _746
REMARK  360  A    between atoms: _748  and  _749
REMARK  361  A    between atoms: _749  and  _750
REMARK  362  A    between atoms: _749  and  _752
REMARK  363  A    between atoms: _755  and  _756
REMARK  364  A    between atoms: _756  and  _757
REMARK  365  A    between atoms: _756  and  _759
REMARK  366  A    between atoms: _759  and  _760
REMARK  367  A    between atoms: _763  and  _764
REMARK  368  A    between atoms: _764  and  _765
REMARK  369  A    between atoms: _768  and  _769
REMARK  370  A    between atoms: _769  and  _770
REMARK  371  A    between atoms: _769  and  _772
REMARK  372  A    between atoms: _772  and  _773
REMARK  373  A    between atoms: _773  and  _774
REMARK  374  A    between atoms: _774  and  _775
REMARK  375  A    between atoms: _777  and  _778
REMARK  376  A    between atoms: _778  and  _779
REMARK  377  A    between atoms: _778  and  _781
REMARK  378  A    between atoms: _783  and  _784
REMARK  379  A    between atoms: _784  and  _785
REMARK  380  A    between atoms: _787  and  _788
REMARK  381  A    between atoms: _788  and  _789
REMARK  382  A    between atoms: _788  and  _791
REMARK  383  A    between atoms: _794  and  _795
REMARK  384  A    between atoms: _795  and  _796
REMARK  385  A    between atoms: _795  and  _798
REMARK  386  A    between atoms: _798  and  _799
REMARK  387  A    between atoms: _799  and  _800
REMARK  388  A    between atoms: _800  and  _801
REMARK  389  A    between atoms: _803  and  _804
REMARK  390  A    between atoms: _804  and  _805
REMARK  391  A    between atoms: _808  and  _809
REMARK  392  A    between atoms: _809  and  _810
REMARK  393  A    between atoms: _809  and  _812
REMARK  394  A    between atoms: _812  and  _813
REMARK  395  A    between atoms: _819  and  _820
REMARK  396  A    between atoms: _820  and  _821
REMARK  397  A    between atoms: _820  and  _823
REMARK  398  A    between atoms: _823  and  _824
REMARK  399  A    between atoms: _824  and  _825
REMARK  400  A    between atoms: _827  and  _828
REMARK  401  A    between atoms: _828  and  _829
REMARK  402  A    between atoms: _828  and  _831
REMARK  403  A    between atoms: _831  and  _832
REMARK  404  A    between atoms: _832  and  _833
REMARK  405  A    between atoms: _836  and  _837
REMARK  406  A    between atoms: _837  and  _838
REMARK  407  A    between atoms: _841  and  _842
REMARK  408  A    between atoms: _842  and  _843
REMARK  409  A    between atoms: _842  and  _845
REMARK  410  A    between atoms: _845  and  _846
REMARK  411  A    between atoms: _849  and  _850
REMARK  412  A    between atoms: _850  and  _851
REMARK  413  A    between atoms: _850  and  _853
REMARK  414  A    between atoms: _853  and  _854
REMARK  415  A    between atoms: _854  and  _855
REMARK  416  A    between atoms: _858  and  _859
REMARK  417  A    between atoms: _859  and  _860
REMARK  418  A    between atoms: _863  and  _864
REMARK  419  A    between atoms: _864  and  _865
REMARK  420  A    between atoms: _867  and  _868
REMARK  421  A    between atoms: _868  and  _869
REMARK  422  A    between atoms: _872  and  _873
REMARK  423  A    between atoms: _873  and  _874
REMARK  424  A    between atoms: _873  and  _876
REMARK  425  A    between atoms: _876  and  _877
REMARK  426  A    between atoms: _880  and  _881
REMARK  427  A    between atoms: _881  and  _882
REMARK  428  A    between atoms: _881  and  _884
REMARK  429  A    between atoms: _884  and  _885
REMARK  430  A    between atoms: _888  and  _889
REMARK  431  A    between atoms: _889  and  _890
REMARK  432  A    between atoms: _889  and  _892
REMARK  433  A    between atoms: _894  and  _895
REMARK  434  A    between atoms: _895  and  _896
REMARK  435  A    between atoms: _895  and  _898
REMARK  436  A    between atoms: _898  and  _899
REMARK  437  A    between atoms: _899  and  _900
REMARK  438  A    between atoms: _902  and  _903
REMARK  439  A    between atoms: _903  and  _904
REMARK  440  A    between atoms: _903  and  _906
REMARK  441  A    between atoms: _906  and  _907
REMARK  442  A    between atoms: _910  and  _911
REMARK  443  A    between atoms: _911  and  _912
REMARK  444  A    between atoms: _914  and  _915
REMARK  445  A    between atoms: _915  and  _916
REMARK  446  A    between atoms: _915  and  _918
REMARK  447  A    between atoms: _918  and  _919
REMARK  448  A    between atoms: _919  and  _920
REMARK  449  A    between atoms: _923  and  _924
REMARK  450  A    between atoms: _924  and  _925
REMARK  451  A    between atoms: _924  and  _927
REMARK  452  A    between atoms: _927  and  _928
REMARK  453  A    between atoms: _934  and  _935
REMARK  454  A    between atoms: _935  and  _936
REMARK  455  A    between atoms: _938  and  _939
REMARK  456  A    between atoms: _939  and  _940
REMARK  457  A    between atoms: _939  and  _942
REMARK  458  A    between atoms: _945  and  _946
REMARK  459  A    between atoms: _946  and  _947
REMARK  460  A    between atoms: _949  and  _950
REMARK  461  A    between atoms: _950  and  _951
REMARK  462  A    between atoms: _950  and  _953
REMARK  463  A    between atoms: _953  and  _954
REMARK  464  A    between atoms: _960  and  _961
REMARK  465  A    between atoms: _961  and  _962
REMARK  466  A    between atoms: _961  and  _964
REMARK  467  A    between atoms: _964  and  _965
REMARK  468  A    between atoms: _972  and  _973
REMARK  469  A    between atoms: _973  and  _974
REMARK  470  A    between atoms: _973  and  _976
REMARK  471  A    between atoms: _978  and  _979
REMARK  472  A    between atoms: _979  and  _980
REMARK  473  A    between atoms: _983  and  _984
REMARK  474  A    between atoms: _984  and  _985
REMARK  475  A    between atoms: _984  and  _987
REMARK  476  A    between atoms: _987  and  _988
REMARK  477  A    between atoms: _995  and  _996
REMARK  478  A    between atoms: _996  and  _997
REMARK  479  A    between atoms: _996  and  _999
REMARK  480  A    between atoms: _999  and  _1000
REMARK  481  A    between atoms: _1003  and  _1004
REMARK  482  A    between atoms: _1004  and  _1005
REMARK  483  A    between atoms: _1004  and  _1007
REMARK  484  A    between atoms: _1010  and  _1011
REMARK  485  A    between atoms: _1011  and  _1012
REMARK  486  A    between atoms: _1015  and  _1016
REMARK  487  A    between atoms: _1016  and  _1017
REMARK  488  A    between atoms: _1016  and  _1019
REMARK  489  A    between atoms: _1019  and  _1020
REMARK  490  A    between atoms: _1020  and  _1021
REMARK  491  A    between atoms: _1024  and  _1025
REMARK  492  A    between atoms: _1025  and  _1026
REMARK  493  A    between atoms: _1025  and  _1028
REMARK  494  A    between atoms: _1028  and  _1029
REMARK  495  A    between atoms: _1029  and  _1030
REMARK  496  A    between atoms: _1030  and  _1031
REMARK  497  A    between atoms: _1033  and  _1034
REMARK  498  A    between atoms: _1034  and  _1035
REMARK  499  A    between atoms: _1034  and  _1037
REMARK  500  A    between atoms: _1040  and  _1041
REMARK  501  A    between atoms: _1041  and  _1042
REMARK  502  A    between atoms: _1041  and  _1044
REMARK  503  A    between atoms: _1047  and  _1048
REMARK  504  A    between atoms: _1048  and  _1049
REMARK  505  A    between atoms: _1048  and  _1051
REMARK  506  A    between atoms: _1054  and  _1055
REMARK  507  A    between atoms: _1055  and  _1056
REMARK  508  A    between atoms: _1055  and  _1058
REMARK  509  A    between atoms: _1058  and  _1059
REMARK  510  A    between atoms: _1062  and  _1063
REMARK  511  A    between atoms: _1063  and  _1064
REMARK  512  A    between atoms: _1063  and  _1066
REMARK  513  A    between atoms: _1069  and  _1070
REMARK  514  A    between atoms: _1070  and  _1071
REMARK  515  A    between atoms: _1070  and  _1073
REMARK  516  A    between atoms: _1073  and  _1074
REMARK  517  A    between atoms: _1074  and  _1075
REMARK  518  A    between atoms: _1075  and  _1076
REMARK  519  A    between atoms: _1078  and  _1079
REMARK  520  A    between atoms: _1079  and  _1080
REMARK  521  A    between atoms: _1079  and  _1082
REMARK  522  A    between atoms: _1082  and  _1083
REMARK  523  A    between atoms: _1088  and  _1089
REMARK  524  A    between atoms: _1089  and  _1090
REMARK  525  A    between atoms: _1089  and  _1092
REMARK  526  A    between atoms: _1092  and  _1093
REMARK  527  A    between atoms: _1096  and  _1097
REMARK  528  A    between atoms: _1097  and  _1098
REMARK  529  A    between atoms: _1097  and  _1100
REMARK  530  A    between atoms: _1100  and  _1101
REMARK  531  A    between atoms: _1104  and  _1105
REMARK  532  A    between atoms: _1105  and  _1106
REMARK  533  A    between atoms: _1105  and  _1108
REMARK  534  A    between atoms: _1108  and  _1109
REMARK  535  A    between atoms: _1112  and  _1113
REMARK  536  A    between atoms: _1113  and  _1114
REMARK  537  A    between atoms: _1113  and  _1116
REMARK  538  A    between atoms: _1116  and  _1117
REMARK  539  A    between atoms: _1117  and  _1118
REMARK  540  A    between atoms: _1121  and  _1122
REMARK  541  A    between atoms: _1122  and  _1123
REMARK  542  A    between atoms: _1122  and  _1125
REMARK  543  A    between atoms: _1125  and  _1126
REMARK  544  A    between atoms: _1126  and  _1127
REMARK  545  A    between atoms: _1130  and  _1131
REMARK  546  A    between atoms: _1131  and  _1132
REMARK  547  A    between atoms: _1131  and  _1134
REMARK  548  A    between atoms: _1134  and  _1135
REMARK  549  A    between atoms: _1142  and  _1143
REMARK  550  A    between atoms: _1143  and  _1144
REMARK  551  A    between atoms: _1147  and  _1148
REMARK  552  A    between atoms: _1148  and  _1149
REMARK  553  A    between atoms: _1148  and  _1151
REMARK  554  A    between atoms: _1151  and  _1152
REMARK  555  A    between atoms: _1161  and  _1162
REMARK  556  A    between atoms: _1162  and  _1163
REMARK  557  A    between atoms: _1162  and  _1165
REMARK  558  A    between atoms: _1165  and  _1166
REMARK  559  A    between atoms: _1166  and  _1167
REMARK  560  A    between atoms: _1170  and  _1171
REMARK  561  A    between atoms: _1171  and  _1172
REMARK  562  A    between atoms: _1171  and  _1174
REMARK  563  A    between atoms: _1176  and  _1177
REMARK  564  A    between atoms: _1177  and  _1178
REMARK  565  A    between atoms: _1177  and  _1180
REMARK  566  A    between atoms: _1182  and  _1183
REMARK  567  A    between atoms: _1183  and  _1184
REMARK  568  A    between atoms: _1187  and  _1188
REMARK  569  A    between atoms: _1188  and  _1189
REMARK  570  A    between atoms: _1191  and  _1192
REMARK  571  A    between atoms: _1192  and  _1193
REMARK  572  A    between atoms: _1195  and  _1196
REMARK  573  A    between atoms: _1196  and  _1197
REMARK  574  A    between atoms: _1196  and  _1199
REMARK  575  A    between atoms: _1201  and  _1202
REMARK  576  A    between atoms: _1202  and  _1203
REMARK  577  A    between atoms: _1202  and  _1205
REMARK  578  A    between atoms: _1205  and  _1206
REMARK  579  A    between atoms: _1212  and  _1213
REMARK  580  A    between atoms: _1213  and  _1214
REMARK  581  A    between atoms: _1213  and  _1216
REMARK  582  A    between atoms: _1219  and  _1220
REMARK  583  A    between atoms: _1220  and  _1221
REMARK  584  A    between atoms: _1220  and  _1223
REMARK  585  A    between atoms: _1226  and  _1227
REMARK  586  A    between atoms: _1227  and  _1228
REMARK  587  A    between atoms: _1227  and  _1230
REMARK  588  A    between atoms: _1230  and  _1231
REMARK  589  A    between atoms: _1231  and  _1232
REMARK  590  A    between atoms: _1232  and  _1233
REMARK  591  A    between atoms: _1237  and  _1238
REMARK  592  A    between atoms: _1238  and  _1239
REMARK  593  A    between atoms: _1238  and  _1241
REMARK  594  A    between atoms: _1244  and  _1245
REMARK  595  A    between atoms: _1245  and  _1246
REMARK  596  A    between atoms: _1245  and  _1248
REMARK  597  A    between atoms: _1248  and  _1249
REMARK  598  A    between atoms: _1252  and  _1253
REMARK  599  A    between atoms: _1253  and  _1254
REMARK  600  A    between atoms: _1253  and  _1256
REMARK  601  A    between atoms: _1259  and  _1260
REMARK  602  A    between atoms: _1260  and  _1261
REMARK  603  A    between atoms: _1263  and  _1264
REMARK  604  A    between atoms: _1264  and  _1265
REMARK  605  A    between atoms: _1264  and  _1267
REMARK  606  A    between atoms: _1267  and  _1268
REMARK  607  A    between atoms: _1268  and  _1269
REMARK  608  A    between atoms: _1273  and  _1274
REMARK  609  A    between atoms: _1279  and  _1280
REMARK  610  A    between atoms: _1280  and  _1285
REMARK  611  A    between atoms: _1285  and  _1286
REMARK  612  A    between atoms: _1286  and  _1287
REMARK  613  A    between atoms: _1287  and  _1289
REMARK  614  A    between atoms: _1292  and  _1293
REMARK  615  A    between atoms: _1293  and  _1294
REMARK  616  A    between atoms: _1296  and  _1297
REMARK  617  A    between atoms: _1297  and  _1298
REMARK  618  A    between atoms: _1297  and  _1300
REMARK  619  A    between atoms: _1300  and  _1301
REMARK  620  A    between atoms: _1301  and  _1302
REMARK  621  A    between atoms: _1302  and  _1303
REMARK  622  A    between atoms: _1307  and  _1308
REMARK  623  A    between atoms: _1308  and  _1309
REMARK  624  A    between atoms: _1311  and  _1312
REMARK  625  A    between atoms: _1312  and  _1313
REMARK  626  A    between atoms: _1312  and  _1315
REMARK  627  A    between atoms: _1318  and  _1319
REMARK  628  A    between atoms: _1319  and  _1320
REMARK  629  A    between atoms: _1319  and  _1322
REMARK  630  A    between atoms: _1322  and  _1323
REMARK  631  A    between atoms: _1323  and  _1324
REMARK  632  A    between atoms: _1324  and  _1325
REMARK  633  A    between atoms: _1327  and  _1328
REMARK  634  A    between atoms: _1328  and  _1329
REMARK  635  A    between atoms: _1328  and  _1331
REMARK  636  A    between atoms: _1334  and  _1335
REMARK  637  A    between atoms: _1335  and  _1336
REMARK  638  A    between atoms: _1335  and  _1338
REMARK  639  A    between atoms: _1338  and  _1339
REMARK  640  A    between atoms: _1342  and  _1343
REMARK  641  A    between atoms: _1343  and  _1344
REMARK  642  A    between atoms: _1343  and  _1346
REMARK  643  A    between atoms: _1346  and  _1347
REMARK  644  A    between atoms: _1350  and  _1351
REMARK  645  A    between atoms: _1351  and  _1352
REMARK  646  A    between atoms: _1351  and  _1354
REMARK  647  A    between atoms: _1354  and  _1355
REMARK  648  A    between atoms: _1360  and  _1361
REMARK  649  A    between atoms: _1361  and  _1362
REMARK  650  A    between atoms: _1361  and  _1364
REMARK  651  A    between atoms: _1364  and  _1365
REMARK  652  A    between atoms: _1368  and  _1369
REMARK  653  A    between atoms: _1369  and  _1370
REMARK  654  A    between atoms: _1369  and  _1372
REMARK  655  A    between atoms: _1372  and  _1373
REMARK  656  A    between atoms: _1373  and  _1374
REMARK  657  A    between atoms: _1374  and  _1375
REMARK  658  A    between atoms: _1377  and  _1378
REMARK  659  A    between atoms: _1378  and  _1379
REMARK  660  A    between atoms: _1378  and  _1381
REMARK  661  A    between atoms: _1381  and  _1382
REMARK  662  A    between atoms: _1382  and  _1383
REMARK  663  A    between atoms: _1386  and  _1387
REMARK  664  A    between atoms: _1387  and  _1388
REMARK  665  A    between atoms: _1387  and  _1390
REMARK  666  A    between atoms: _1390  and  _1391
REMARK  667  A    between atoms: _1394  and  _1395
REMARK  668  A    between atoms: _1395  and  _1396
REMARK  669  A    between atoms: _1395  and  _1398
REMARK  670  A    between atoms: _1398  and  _1399
REMARK  671  A    between atoms: _1399  and  _1400
REMARK  672  A    between atoms: _1403  and  _1404
REMARK  673  A    between atoms: _1404  and  _1405
REMARK  674  A    between atoms: _1404  and  _1407
REMARK  675  A    between atoms: _1410  and  _1411
REMARK  676  A    between atoms: _1411  and  _1412
REMARK  677  A    between atoms: _1411  and  _1414
REMARK  678  A    between atoms: _1414  and  _1415
REMARK  679  A    between atoms: _1415  and  _1416
REMARK  680  A    between atoms: _1419  and  _1420
REMARK  681  A    between atoms: _1420  and  _1421
REMARK  682  A    between atoms: _1420  and  _1423
REMARK  683  A    between atoms: _1423  and  _1424
REMARK  684  A    between atoms: _1431  and  _1432
REMARK  685  A    between atoms: _1432  and  _1433
REMARK  686  A    between atoms: _1432  and  _1435
REMARK  687  A    between atoms: _1435  and  _1436
REMARK  688  A    between atoms: _1439  and  _1440
REMARK  689  A    between atoms: _1440  and  _1441
REMARK  690  A    between atoms: _1440  and  _1443
REMARK  691  A    between atoms: _1443  and  _1444
REMARK  692  A    between atoms: _1444  and  _1445
REMARK  693  A    between atoms: _1448  and  _1449
REMARK  694  A    between atoms: _1449  and  _1450
REMARK  695  A    between atoms: _1449  and  _1452
REMARK  696  A    between atoms: _1452  and  _1453
REMARK  697  A    between atoms: _1453  and  _1454
REMARK  698  A    between atoms: _1457  and  _1458
REMARK  699  A    between atoms: _1458  and  _1459
REMARK  700  A    between atoms: _1458  and  _1461
REMARK  701  A    between atoms: _1461  and  _1462
REMARK  702  A    between atoms: _1462  and  _1463
REMARK  703  A    between atoms: _1463  and  _1464
REMARK  704  A    between atoms: _1468  and  _1469
REMARK  705  A    between atoms: _1469  and  _1470
REMARK  706  A    between atoms: _1469  and  _1472
REMARK  707  A    between atoms: _1472  and  _1473
REMARK  708  A    between atoms: _1473  and  _1474
REMARK  709  A    between atoms: _1474  and  _1475
REMARK  710  A    between atoms: _1479  and  _1480
REMARK  711  A    between atoms: _1480  and  _1481
REMARK  712  A    between atoms: _1480  and  _1483
REMARK  713  A    between atoms: _1483  and  _1484
REMARK  714  A    between atoms: _1487  and  _1488
REMARK  715  A    between atoms: _1488  and  _1489
REMARK  716  A    between atoms: _1488  and  _1491
REMARK  717  A    between atoms: _1491  and  _1492
REMARK  718  A    between atoms: _1492  and  _1493
REMARK  719  A    between atoms: _1493  and  _1494
REMARK  720  A    between atoms: _1496  and  _1497
REMARK  721  A    between atoms: _1497  and  _1498
REMARK  722  A    between atoms: _1497  and  _1500
REMARK  723  A    between atoms: _1500  and  _1501
REMARK  724  A    between atoms: _1501  and  _1502
REMARK  725  A    between atoms: _1505  and  _1506
REMARK  726  A    between atoms: _1506  and  _1507
REMARK  727  A    between atoms: _1506  and  _1509
REMARK  728  A    between atoms: _1509  and  _1510
REMARK  729  A    between atoms: _1513  and  _1514
REMARK  730  A    between atoms: _1514  and  _1515
REMARK  731  A    between atoms: _1514  and  _1517
REMARK  732  A    between atoms: _1520  and  _1521
REMARK  733  A    between atoms: _1521  and  _1522
REMARK  734  A    between atoms: _1521  and  _1524
REMARK  735  A    between atoms: _1524  and  _1525
REMARK  736  A    between atoms: _1525  and  _1526
REMARK  737  A    between atoms: _1526  and  _1527
REMARK  738  A    between atoms: _1529  and  _1530
REMARK  739  A    between atoms: _1530  and  _1531
REMARK  740  A    between atoms: _1530  and  _1533
REMARK  741  A    between atoms: _1533  and  _1534
REMARK  742  A    between atoms: _1534  and  _1535
REMARK  743  A    between atoms: _1535  and  _1536
REMARK  744  A    between atoms: _1538  and  _1539
REMARK  745  A    between atoms: _1539  and  _1540
REMARK  746  A    between atoms: _1539  and  _1542
REMARK  747  A    between atoms: _1542  and  _1543
REMARK  748  A    between atoms: _1548  and  _1549
REMARK  749  A    between atoms: _1549  and  _1550
REMARK  750  A    between atoms: _1549  and  _1552
REMARK  751  A    between atoms: _1554  and  _1555
REMARK  752  A    between atoms: _1555  and  _1556
REMARK  753  A    between atoms: _1555  and  _1558
REMARK  754  A    between atoms: _1558  and  _1559
REMARK  755  A    between atoms: _1559  and  _1560
REMARK  756  A    between atoms: _1563  and  _1564
REMARK  757  A    between atoms: _1564  and  _1565
REMARK  758  A    between atoms: _1564  and  _1567
REMARK  759  A    between atoms: _1567  and  _1568
REMARK  760  A    between atoms: _1574  and  _1575
REMARK  761  A    between atoms: _1575  and  _1576
REMARK  762  A    between atoms: _1575  and  _1578
REMARK  763  A    between atoms: _1578  and  _1579
REMARK  764  A    between atoms: _1582  and  _1583
REMARK  765  A    between atoms: _1583  and  _1584
REMARK  766  A    between atoms: _1586  and  _1587
REMARK  767  A    between atoms: _1587  and  _1588
REMARK  768  A    between atoms: _1587  and  _1590
REMARK  769  A    between atoms: _1590  and  _1591
REMARK  770  A    between atoms: _1599  and  _1600
REMARK  771  A    between atoms: _1605  and  _1606
REMARK  772  A    between atoms: _1606  and  _1607
REMARK  773  A    between atoms: _1606  and  _1609
REMARK  774  A    between atoms: _1609  and  _1610
REMARK  775  A    between atoms: _1613  and  _1614
REMARK  776  A    between atoms: _1614  and  _1615
REMARK  777  A    between atoms: _1614  and  _1617
REMARK  778  A    between atoms: _1620  and  _1621
REMARK  779  A    between atoms: _1621  and  _1622
REMARK  780  A    between atoms: _1621  and  _1624
REMARK  781  A    between atoms: _1624  and  _1625
REMARK  782  A    between atoms: _1628  and  _1629
REMARK  783  A    between atoms: _1629  and  _1630
REMARK  784  A    between atoms: _1629  and  _1632
REMARK  785  A    between atoms: _1632  and  _1633
REMARK  786  A    between atoms: _1639  and  _1640
REMARK  787  A    between atoms: _1640  and  _1641
REMARK  788  A    between atoms: _1640  and  _1643
REMARK  789  A    between atoms: _1646  and  _1647
REMARK  790  A    between atoms: _1647  and  _1648
REMARK  791  A    between atoms: _1647  and  _1650
REMARK  792  A    between atoms: _1650  and  _1651
REMARK  793  A    between atoms: _1651  and  _1652
REMARK  794  A    between atoms: _1655  and  _1656
REMARK  795  A    between atoms: _1656  and  _1657
REMARK  796  A    between atoms: _1656  and  _1659
REMARK  797  A    between atoms: _1659  and  _1660
REMARK  798  A    between atoms: _1660  and  _1661
REMARK                            x       y       z     vdW  Elec       q    Type
REMARK                         _______ _______ _______ _____ _____    ______ ____
ROOT
ATOM      1  C   UNL     1      14.105 -13.316  27.973  0.00  0.00    +0.000 C 
ATOM      2  C   UNL     1      12.862 -14.085  28.120  0.00  0.00    +0.000 C 
ENDROOT
TORSDOF 0
REMARK  Name = /Users/mlugowska/PhD/ML_residence_time_prediction/protein_files/5NYI_protein.pdb
REMARK  798 active torsions:
REMARK  status: ('A' for Active; 'I' for Inactive)
REMARK    1  A    between atoms: _2  and  _3
REMARK    2  A    between atoms: _2  and  _5
REMARK    3  A    between atoms: _5  and  _6
REMARK    4  A    between atoms: _6  and  _7
REMARK    5  A    between atoms: _10  and  _11
REMARK    6  A    between atoms: _11  and  _12
REMARK    7  A    between atoms: _11  and  _14
REMARK    8  A    between atoms: _17  and  _18
REMARK    9  A    between atoms: _18  and  _19
REMARK   10  A    between atoms: _18  and  _21
REMARK   11  A    between atoms: _21  and  _22
REMARK   12  A    between atoms: _22  and  _23
REMARK   13  A    between atoms: _26  and  _27
REMARK   14  A    between atoms: _27  and  _28
REMARK   15  A    between atoms: _27  and  _30
REMARK   16  A    between atoms: _33  and  _34
REMARK   17  A    between atoms: _34  and  _35
REMARK   18  A    between atoms: _34  and  _37
REMARK   19  A    between atoms: _37  and  _38
REMARK   20  A    between atoms: _44  and  _45
REMARK   21  A    between atoms: _45  and  _46
REMARK   22  A    between atoms: _49  and  _50
REMARK   23  A    between atoms: _50  and  _51
REMARK   24  A    between atoms: _50  and  _53
REMARK   25  A    between atoms: _53  and  _54
REMARK   26  A    between atoms: _60  and  _61
REMARK   27  A    between atoms: _61  and  _62
REMARK   28  A    between atoms: _61  and  _64
REMARK   29  A    between atoms: _64  and  _65
REMARK   30  A    between atoms: _65  and  _66
REMARK   31  A    between atoms: _69  and  _70
REMARK   32  A    between atoms: _70  and  _71
REMARK   33  A    between atoms: _74  and  _75
REMARK   34  A    between atoms: _75  and  _76
REMARK   35  A    between atoms: _75  and  _78
REMARK   36  A    between atoms: _78  and  _79
REMARK   37  A    between atoms: _79  and  _80
REMARK   38  A    between atoms: _83  and  _84
REMARK   39  A    between atoms: _84  and  _86
REMARK   40  A    between atoms: _88  and  _90
REMARK   41  A    between atoms: _96  and  _97
REMARK   42  A    between atoms: _97  and  _98
REMARK   43  A    between atoms: _101  and  _102
REMARK   44  A    between atoms: _102  and  _103
REMARK   45  A    between atoms: _102  and  _105
REMARK   46  A    between atoms: _105  and  _106
REMARK   47  A    between atoms: _106  and  _107
REMARK   48  A    between atoms: _110  and  _111
REMARK   49  A    between atoms: _111  and  _112
REMARK   50  A    between atoms: _111  and  _114
REMARK   51  A    between atoms: _114  and  _115
REMARK   52  A    between atoms: _118  and  _119
REMARK   53  A    between atoms: _119  and  _120
REMARK   54  A    between atoms: _119  and  _122
REMARK   55  A    between atoms: _122  and  _123
REMARK   56  A    between atoms: _123  and  _124
REMARK   57  A    between atoms: _126  and  _127
REMARK   58  A    between atoms: _127  and  _128
REMARK   59  A    between atoms: _127  and  _130
REMARK   60  A    between atoms: _132  and  _133
REMARK   61  A    between atoms: _133  and  _134
REMARK   62  A    between atoms: _133  and  _136
REMARK   63  A    between atoms: _136  and  _137
REMARK   64  A    between atoms: _140  and  _141
REMARK   65  A    between atoms: _141  and  _142
REMARK   66  A    between atoms: _141  and  _144
REMARK   67  A    between atoms: _144  and  _145
REMARK   68  A    between atoms: _148  and  _149
REMARK   69  A    between atoms: _149  and  _150
REMARK   70  A    between atoms: _149  and  _152
REMARK   71  A    between atoms: _152  and  _153
REMARK   72  A    between atoms: _156  and  _157
REMARK   73  A    between atoms: _157  and  _158
REMARK   74  A    between atoms: _157  and  _160
REMARK   75  A    between atoms: _160  and  _161
REMARK   76  A    between atoms: _164  and  _165
REMARK   77  A    between atoms: _165  and  _166
REMARK   78  A    between atoms: _165  and  _168
REMARK   79  A    between atoms: _171  and  _172
REMARK   80  A    between atoms: _172  and  _173
REMARK   81  A    between atoms: _172  and  _175
REMARK   82  A    between atoms: _175  and  _176
REMARK   83  A    between atoms: _182  and  _183
REMARK   84  A    between atoms: _183  and  _184
REMARK   85  A    between atoms: _183  and  _186
REMARK   86  A    between atoms: _186  and  _187
REMARK   87  A    between atoms: _194  and  _195
REMARK   88  A    between atoms: _195  and  _196
REMARK   89  A    between atoms: _195  and  _198
REMARK   90  A    between atoms: _200  and  _201
REMARK   91  A    between atoms: _201  and  _202
REMARK   92  A    between atoms: _201  and  _204
REMARK   93  A    between atoms: _204  and  _205
REMARK   94  A    between atoms: _208  and  _209
REMARK   95  A    between atoms: _209  and  _210
REMARK   96  A    between atoms: _209  and  _212
REMARK   97  A    between atoms: _212  and  _213
REMARK   98  A    between atoms: _213  and  _214
REMARK   99  A    between atoms: _214  and  _215
REMARK  100  A    between atoms: _217  and  _218
REMARK  101  A    between atoms: _218  and  _219
REMARK  102  A    between atoms: _218  and  _221
REMARK  103  A    between atoms: _221  and  _222
REMARK  104  A    between atoms: _222  and  _223
REMARK  105  A    between atoms: _226  and  _227
REMARK  106  A    between atoms: _227  and  _228
REMARK  107  A    between atoms: _227  and  _230
REMARK  108  A    between atoms: _230  and  _231
REMARK  109  A    between atoms: _234  and  _235
REMARK  110  A    between atoms: _235  and  _236
REMARK  111  A    between atoms: _235  and  _238
REMARK  112  A    between atoms: _238  and  _239
REMARK  113  A    between atoms: _245  and  _246
REMARK  114  A    between atoms: _246  and  _247
REMARK  115  A    between atoms: _246  and  _249
REMARK  116  A    between atoms: _249  and  _250
REMARK  117  A    between atoms: _253  and  _254
REMARK  118  A    between atoms: _254  and  _255
REMARK  119  A    between atoms: _254  and  _257
REMARK  120  A    between atoms: _257  and  _258
REMARK  121  A    between atoms: _258  and  _259
REMARK  122  A    between atoms: _259  and  _260
REMARK  123  A    between atoms: _264  and  _265
REMARK  124  A    between atoms: _265  and  _266
REMARK  125  A    between atoms: _265  and  _268
REMARK  126  A    between atoms: _268  and  _269
REMARK  127  A    between atoms: _269  and  _270
REMARK  128  A    between atoms: _273  and  _274
REMARK  129  A    between atoms: _274  and  _275
REMARK  130  A    between atoms: _274  and  _277
REMARK  131  A    between atoms: _277  and  _278
REMARK  132  A    between atoms: _281  and  _282
REMARK  133  A    between atoms: _282  and  _283
REMARK  134  A    between atoms: _282  and  _285
REMARK  135  A    between atoms: _285  and  _286
REMARK  136  A    between atoms: _289  and  _290
REMARK  137  A    between atoms: _290  and  _295
REMARK  138  A    between atoms: _298  and  _299
REMARK  139  A    between atoms: _299  and  _300
REMARK  140  A    between atoms: _299  and  _302
REMARK  141  A    between atoms: _302  and  _303
REMARK  142  A    between atoms: _306  and  _307
REMARK  143  A    between atoms: _307  and  _308
REMARK  144  A    between atoms: _307  and  _310
REMARK  145  A    between atoms: _312  and  _313
REMARK  146  A    between atoms: _313  and  _314
REMARK  147  A    between atoms: _313  and  _316
REMARK  148  A    between atoms: _318  and  _319
REMARK  149  A    between atoms: _319  and  _320
REMARK  150  A    between atoms: _319  and  _322
REMARK  151  A    between atoms: _322  and  _323
REMARK  152  A    between atoms: _326  and  _327
REMARK  153  A    between atoms: _327  and  _328
REMARK  154  A    between atoms: _331  and  _332
REMARK  155  A    between atoms: _332  and  _333
REMARK  156  A    between atoms: _332  and  _335
REMARK  157  A    between atoms: _335  and  _336
REMARK  158  A    between atoms: _339  and  _340
REMARK  159  A    between atoms: _340  and  _341
REMARK  160  A    between atoms: _340  and  _343
REMARK  161  A    between atoms: _343  and  _344
REMARK  162  A    between atoms: _347  and  _348
REMARK  163  A    between atoms: _348  and  _349
REMARK  164  A    between atoms: _348  and  _351
REMARK  165  A    between atoms: _351  and  _352
REMARK  166  A    between atoms: _352  and  _353
REMARK  167  A    between atoms: _353  and  _354
REMARK  168  A    between atoms: _356  and  _357
REMARK  169  A    between atoms: _357  and  _358
REMARK  170  A    between atoms: _357  and  _360
REMARK  171  A    between atoms: _360  and  _361
REMARK  172  A    between atoms: _364  and  _365
REMARK  173  A    between atoms: _365  and  _366
REMARK  174  A    between atoms: _365  and  _368
REMARK  175  A    between atoms: _368  and  _369
REMARK  176  A    between atoms: _369  and  _370
REMARK  177  A    between atoms: _370  and  _371
REMARK  178  A    between atoms: _375  and  _376
REMARK  179  A    between atoms: _376  and  _377
REMARK  180  A    between atoms: _376  and  _379
REMARK  181  A    between atoms: _379  and  _380
REMARK  182  A    between atoms: _387  and  _388
REMARK  183  A    between atoms: _388  and  _389
REMARK  184  A    between atoms: _388  and  _391
REMARK  185  A    between atoms: _391  and  _392
REMARK  186  A    between atoms: _392  and  _393
REMARK  187  A    between atoms: _396  and  _397
REMARK  188  A    between atoms: _397  and  _398
REMARK  189  A    between atoms: _397  and  _400
REMARK  190  A    between atoms: _403  and  _404
REMARK  191  A    between atoms: _404  and  _405
REMARK  192  A    between atoms: _404  and  _407
REMARK  193  A    between atoms: _407  and  _408
REMARK  194  A    between atoms: _411  and  _412
REMARK  195  A    between atoms: _412  and  _413
REMARK  196  A    between atoms: _412  and  _415
REMARK  197  A    between atoms: _418  and  _419
REMARK  198  A    between atoms: _419  and  _420
REMARK  199  A    between atoms: _419  and  _422
REMARK  200  A    between atoms: _422  and  _423
REMARK  201  A    between atoms: _427  and  _428
REMARK  202  A    between atoms: _433  and  _434
REMARK  203  A    between atoms: _434  and  _435
REMARK  204  A    between atoms: _434  and  _437
REMARK  205  A    between atoms: _439  and  _440
REMARK  206  A    between atoms: _440  and  _441
REMARK  207  A    between atoms: _440  and  _443
REMARK  208  A    between atoms: _443  and  _444
REMARK  209  A    between atoms: _444  and  _445
REMARK  210  A    between atoms: _445  and  _446
REMARK  211  A    between atoms: _448  and  _449
REMARK  212  A    between atoms: _449  and  _450
REMARK  213  A    between atoms: _449  and  _452
REMARK  214  A    between atoms: _452  and  _453
REMARK  215  A    between atoms: _456  and  _457
REMARK  216  A    between atoms: _457  and  _458
REMARK  217  A    between atoms: _457  and  _460
REMARK  218  A    between atoms: _460  and  _461
REMARK  219  A    between atoms: _464  and  _465
REMARK  220  A    between atoms: _465  and  _466
REMARK  221  A    between atoms: _465  and  _468
REMARK  222  A    between atoms: _470  and  _471
REMARK  223  A    between atoms: _471  and  _472
REMARK  224  A    between atoms: _474  and  _475
REMARK  225  A    between atoms: _475  and  _476
REMARK  226  A    between atoms: _475  and  _478
REMARK  227  A    between atoms: _478  and  _479
REMARK  228  A    between atoms: _479  and  _480
REMARK  229  A    between atoms: _480  and  _481
REMARK  230  A    between atoms: _483  and  _484
REMARK  231  A    between atoms: _484  and  _485
REMARK  232  A    between atoms: _484  and  _487
REMARK  233  A    between atoms: _487  and  _488
REMARK  234  A    between atoms: _488  and  _489
REMARK  235  A    between atoms: _492  and  _493
REMARK  236  A    between atoms: _493  and  _494
REMARK  237  A    between atoms: _493  and  _496
REMARK  238  A    between atoms: _496  and  _497
REMARK  239  A    between atoms: _500  and  _501
REMARK  240  A    between atoms: _501  and  _502
REMARK  241  A    between atoms: _501  and  _504
REMARK  242  A    between atoms: _504  and  _505
REMARK  243  A    between atoms: _510  and  _511
REMARK  244  A    between atoms: _511  and  _512
REMARK  245  A    between atoms: _511  and  _514
REMARK  246  A    between atoms: _514  and  _515
REMARK  247  A    between atoms: _518  and  _519
REMARK  248  A    between atoms: _519  and  _520
REMARK  249  A    between atoms: _519  and  _522
REMARK  250  A    between atoms: _522  and  _523
REMARK  251  A    between atoms: _526  and  _527
REMARK  252  A    between atoms: _527  and  _528
REMARK  253  A    between atoms: _527  and  _530
REMARK  254  A    between atoms: _530  and  _531
REMARK  255  A    between atoms: _534  and  _535
REMARK  256  A    between atoms: _535  and  _536
REMARK  257  A    between atoms: _535  and  _538
REMARK  258  A    between atoms: _538  and  _539
REMARK  259  A    between atoms: _543  and  _544
REMARK  260  A    between atoms: _549  and  _550
REMARK  261  A    between atoms: _550  and  _551
REMARK  262  A    between atoms: _550  and  _553
REMARK  263  A    between atoms: _553  and  _554
REMARK  264  A    between atoms: _557  and  _558
REMARK  265  A    between atoms: _558  and  _559
REMARK  266  A    between atoms: _558  and  _561
REMARK  267  A    between atoms: _561  and  _562
REMARK  268  A    between atoms: _562  and  _563
REMARK  269  A    between atoms: _563  and  _564
REMARK  270  A    between atoms: _566  and  _567
REMARK  271  A    between atoms: _567  and  _568
REMARK  272  A    between atoms: _567  and  _570
REMARK  273  A    between atoms: _570  and  _571
REMARK  274  A    between atoms: _571  and  _572
REMARK  275  A    between atoms: _575  and  _576
REMARK  276  A    between atoms: _576  and  _577
REMARK  277  A    between atoms: _576  and  _579
REMARK  278  A    between atoms: _579  and  _580
REMARK  279  A    between atoms: _583  and  _584
REMARK  280  A    between atoms: _584  and  _585
REMARK  281  A    between atoms: _584  and  _587
REMARK  282  A    between atoms: _587  and  _588
REMARK  283  A    between atoms: _588  and  _589
REMARK  284  A    between atoms: _589  and  _590
REMARK  285  A    between atoms: _594  and  _595
REMARK  286  A    between atoms: _595  and  _596
REMARK  287  A    between atoms: _595  and  _598
REMARK  288  A    between atoms: _601  and  _602
REMARK  289  A    between atoms: _602  and  _603
REMARK  290  A    between atoms: _602  and  _605
REMARK  291  A    between atoms: _605  and  _606
REMARK  292  A    between atoms: _609  and  _610
REMARK  293  A    between atoms: _610  and  _611
REMARK  294  A    between atoms: _610  and  _613
REMARK  295  A    between atoms: _616  and  _617
REMARK  296  A    between atoms: _617  and  _618
REMARK  297  A    between atoms: _617  and  _620
REMARK  298  A    between atoms: _620  and  _621
REMARK  299  A    between atoms: _624  and  _625
REMARK  300  A    between atoms: _625  and  _626
REMARK  301  A    between atoms: _625  and  _628
REMARK  302  A    between atoms: _631  and  _632
REMARK  303  A    between atoms: _632  and  _633
REMARK  304  A    between atoms: _632  and  _635
REMARK  305  A    between atoms: _635  and  _636
REMARK  306  A    between atoms: _639  and  _640
REMARK  307  A    between atoms: _640  and  _641
REMARK  308  A    between atoms: _640  and  _643
REMARK  309  A    between atoms: _646  and  _647
REMARK  310  A    between atoms: _647  and  _648
REMARK  311  A    between atoms: _650  and  _651
REMARK  312  A    between atoms: _651  and  _652
REMARK  313  A    between atoms: _651  and  _654
REMARK  314  A    between atoms: _654  and  _655
REMARK  315  A    between atoms: _658  and  _659
REMARK  316  A    between atoms: _659  and  _660
REMARK  317  A    between atoms: _662  and  _663
REMARK  318  A    between atoms: _663  and  _664
REMARK  319  A    between atoms: _663  and  _666
REMARK  320  A    between atoms: _666  and  _667
REMARK  321  A    between atoms: _667  and  _668
REMARK  322  A    between atoms: _670  and  _671
REMARK  323  A    between atoms: _671  and  _672
REMARK  324  A    between atoms: _671  and  _674
REMARK  325  A    between atoms: _677  and  _678
REMARK  326  A    between atoms: _678  and  _679
REMARK  327  A    between atoms: _678  and  _681
REMARK  328  A    between atoms: _681  and  _682
REMARK  329  A    between atoms: _682  and  _683
REMARK  330  A    between atoms: _683  and  _684
REMARK  331  A    between atoms: _686  and  _687
REMARK  332  A    between atoms: _687  and  _688
REMARK  333  A    between atoms: _691  and  _692
REMARK  334  A    between atoms: _692  and  _693
REMARK  335  A    between atoms: _692  and  _695
REMARK  336  A    between atoms: _695  and  _696
REMARK  337  A    between atoms: _699  and  _700
REMARK  338  A    between atoms: _700  and  _701
REMARK  339  A    between atoms: _700  and  _703
REMARK  340  A    between atoms: _703  and  _704
REMARK  341  A    between atoms: _707  and  _708
REMARK  342  A    between atoms: _708  and  _709
REMARK  343  A    between atoms: _708  and  _711
REMARK  344  A    between atoms: _711  and  _712
REMARK  345  A    between atoms: _715  and  _716
REMARK  346  A    between atoms: _716  and  _717
REMARK  347  A    between atoms: _716  and  _719
REMARK  348  A    between atoms: _719  and  _720
REMARK  349  A    between atoms: _723  and  _724
REMARK  350  A    between atoms: _724  and  _725
REMARK  351  A    between atoms: _724  and  _727
REMARK  352  A    between atoms: _727  and  _728
REMARK  353  A    between atoms: _733  and  _734
REMARK  354  A    between atoms: _733  and  _736
REMARK  355  A    between atoms: _736  and  _739
REMARK  356  A    between atoms: _739  and  _741
REMARK  357  A    between atoms: _741  and  _742
REMARK  358  A    between atoms: _744  and  _745
REMARK  359  A    between atoms: _745  and  _746
REMARK  360  A    between atoms: _748  and  _749
REMARK  361  A    between atoms: _749  and  _750
REMARK  362  A    between atoms: _749  and  _752
REMARK  363  A    between atoms: _755  and  _756
REMARK  364  A    between atoms: _756  and  _757
REMARK  365  A    between atoms: _756  and  _759
REMARK  366  A    between atoms: _759  and  _760
REMARK  367  A    between atoms: _763  and  _764
REMARK  368  A    between atoms: _764  and  _765
REMARK  369  A    between atoms: _768  and  _769
REMARK  370  A    between atoms: _769  and  _770
REMARK  371  A    between atoms: _769  and  _772
REMARK  372  A    between atoms: _772  and  _773
REMARK  373  A    between atoms: _773  and  _774
REMARK  374  A    between atoms: _774  and  _775
REMARK  375  A    between atoms: _777  and  _778
REMARK  376  A    between atoms: _778  and  _779
REMARK  377  A    between atoms: _778  and  _781
REMARK  378  A    between atoms: _783  and  _784
REMARK  379  A    between atoms: _784  and  _785
REMARK  380  A    between atoms: _787  and  _788
REMARK  381  A    between atoms: _788  and  _789
REMARK  382  A    between atoms: _788  and  _791
REMARK  383  A    between atoms: _794  and  _795
REMARK  384  A    between atoms: _795  and  _796
REMARK  385  A    between atoms: _795  and  _798
REMARK  386  A    between atoms: _798  and  _799
REMARK  387  A    between atoms: _799  and  _800
REMARK  388  A    between atoms: _800  and  _801
REMARK  389  A    between atoms: _803  and  _804
REMARK  390  A    between atoms: _804  and  _805
REMARK  391  A    between atoms: _808  and  _809
REMARK  392  A    between atoms: _809  and  _810
REMARK  393  A    between atoms: _809  and  _812
REMARK  394  A    between atoms: _812  and  _813
REMARK  395  A    between atoms: _819  and  _820
REMARK  396  A    between atoms: _820  and  _821
REMARK  397  A    between atoms: _820  and  _823
REMARK  398  A    between atoms: _823  and  _824
REMARK  399  A    between atoms: _824  and  _825
REMARK  400  A    between atoms: _827  and  _828
REMARK  401  A    between atoms: _828  and  _829
REMARK  402  A    between atoms: _828  and  _831
REMARK  403  A    between atoms: _831  and  _832
REMARK  404  A    between atoms: _832  and  _833
REMARK  405  A    between atoms: _836  and  _837
REMARK  406  A    between atoms: _837  and  _838
REMARK  407  A    between atoms: _841  and  _842
REMARK  408  A    between atoms: _842  and  _843
REMARK  409  A    between atoms: _842  and  _845
REMARK  410  A    between atoms: _845  and  _846
REMARK  411  A    between atoms: _849  and  _850
REMARK  412  A    between atoms: _850  and  _851
REMARK  413  A    between atoms: _850  and  _853
REMARK  414  A    between atoms: _853  and  _854
REMARK  415  A    between atoms: _854  and  _855
REMARK  416  A    between atoms: _858  and  _859
REMARK  417  A    between atoms: _859  and  _860
REMARK  418  A    between atoms: _863  and  _864
REMARK  419  A    between atoms: _864  and  _865
REMARK  420  A    between atoms: _867  and  _868
REMARK  421  A    between atoms: _868  and  _869
REMARK  422  A    between atoms: _872  and  _873
REMARK  423  A    between atoms: _873  and  _874
REMARK  424  A    between atoms: _873  and  _876
REMARK  425  A    between atoms: _876  and  _877
REMARK  426  A    between atoms: _880  and  _881
REMARK  427  A    between atoms: _881  and  _882
REMARK  428  A    between atoms: _881  and  _884
REMARK  429  A    between atoms: _884  and  _885
REMARK  430  A    between atoms: _888  and  _889
REMARK  431  A    between atoms: _889  and  _890
REMARK  432  A    between atoms: _889  and  _892
REMARK  433  A    between atoms: _894  and  _895
REMARK  434  A    between atoms: _895  and  _896
REMARK  435  A    between atoms: _895  and  _898
REMARK  436  A    between atoms: _898  and  _899
REMARK  437  A    between atoms: _899  and  _900
REMARK  438  A    between atoms: _902  and  _903
REMARK  439  A    between atoms: _903  and  _904
REMARK  440  A    between atoms: _903  and  _906
REMARK  441  A    between atoms: _906  and  _907
REMARK  442  A    between atoms: _910  and  _911
REMARK  443  A    between atoms: _911  and  _912
REMARK  444  A    between atoms: _914  and  _915
REMARK  445  A    between atoms: _915  and  _916
REMARK  446  A    between atoms: _915  and  _918
REMARK  447  A    between atoms: _918  and  _919
REMARK  448  A    between atoms: _919  and  _920
REMARK  449  A    between atoms: _923  and  _924
REMARK  450  A    between atoms: _924  and  _925
REMARK  451  A    between atoms: _924  and  _927
REMARK  452  A    between atoms: _927  and  _928
REMARK  453  A    between atoms: _934  and  _935
REMARK  454  A    between atoms: _935  and  _936
REMARK  455  A    between atoms: _938  and  _939
REMARK  456  A    between atoms: _939  and  _940
REMARK  457  A    between atoms: _939  and  _942
REMARK  458  A    between atoms: _945  and  _946
REMARK  459  A    between atoms: _946  and  _947
REMARK  460  A    between atoms: _949  and  _950
REMARK  461  A    between atoms: _950  and  _951
REMARK  462  A    between atoms: _950  and  _953
REMARK  463  A    between atoms: _953  and  _954
REMARK  464  A    between atoms: _960  and  _961
REMARK  465  A    between atoms: _961  and  _962
REMARK  466  A    between atoms: _961  and  _964
REMARK  467  A    between atoms: _964  and  _965
REMARK  468  A    between atoms: _972  and  _973
REMARK  469  A    between atoms: _973  and  _974
REMARK  470  A    between atoms: _973  and  _976
REMARK  471  A    between atoms: _978  and  _979
REMARK  472  A    between atoms: _979  and  _980
REMARK  473  A    between atoms: _983  and  _984
REMARK  474  A    between atoms: _984  and  _985
REMARK  475  A    between atoms: _984  and  _987
REMARK  476  A    between atoms: _987  and  _988
REMARK  477  A    between atoms: _995  and  _996
REMARK  478  A    between atoms: _996  and  _997
REMARK  479  A    between atoms: _996  and  _999
REMARK  480  A    between atoms: _999  and  _1000
REMARK  481  A    between atoms: _1003  and  _1004
REMARK  482  A    between atoms: _1004  and  _1005
REMARK  483  A    between atoms: _1004  and  _1007
REMARK  484  A    between atoms: _1010  and  _1011
REMARK  485  A    between atoms: _1011  and  _1012
REMARK  486  A    between atoms: _1015  and  _1016
REMARK  487  A    between atoms: _1016  and  _1017
REMARK  488  A    between atoms: _1016  and  _1019
REMARK  489  A    between atoms: _1019  and  _1020
REMARK  490  A    between atoms: _1020  and  _1021
REMARK  491  A    between atoms: _1024  and  _1025
REMARK  492  A    between atoms: _1025  and  _1026
REMARK  493  A    between atoms: _1025  and  _1028
REMARK  494  A    between atoms: _1028  and  _1029
REMARK  495  A    between atoms: _1029  and  _1030
REMARK  496  A    between atoms: _1030  and  _1031
REMARK  497  A    between atoms: _1033  and  _1034
REMARK  498  A    between atoms: _1034  and  _1035
REMARK  499  A    between atoms: _1034  and  _1037
REMARK  500  A    between atoms: _1040  and  _1041
REMARK  501  A    between atoms: _1041  and  _1042
REMARK  502  A    between atoms: _1041  and  _1044
REMARK  503  A    between atoms: _1047  and  _1048
REMARK  504  A    between atoms: _1048  and  _1049
REMARK  505  A    between atoms: _1048  and  _1051
REMARK  506  A    between atoms: _1054  and  _1055
REMARK  507  A    between atoms: _1055  and  _1056
REMARK  508  A    between atoms: _1055  and  _1058
REMARK  509  A    between atoms: _1058  and  _1059
REMARK  510  A    between atoms: _1062  and  _1063
REMARK  511  A    between atoms: _1063  and  _1064
REMARK  512  A    between atoms: _1063  and  _1066
REMARK  513  A    between atoms: _1069  and  _1070
REMARK  514  A    between atoms: _1070  and  _1071
REMARK  515  A    between atoms: _1070  and  _1073
REMARK  516  A    between atoms: _1073  and  _1074
REMARK  517  A    between atoms: _1074  and  _1075
REMARK  518  A    between atoms: _1075  and  _1076
REMARK  519  A    between atoms: _1078  and  _1079
REMARK  520  A    between atoms: _1079  and  _1080
REMARK  521  A    between atoms: _1079  and  _1082
REMARK  522  A    between atoms: _1082  and  _1083
REMARK  523  A    between atoms: _1088  and  _1089
REMARK  524  A    between atoms: _1089  and  _1090
REMARK  525  A    between atoms: _1089  and  _1092
REMARK  526  A    between atoms: _1092  and  _1093
REMARK  527  A    between atoms: _1096  and  _1097
REMARK  528  A    between atoms: _1097  and  _1098
REMARK  529  A    between atoms: _1097  and  _1100
REMARK  530  A    between atoms: _1100  and  _1101
REMARK  531  A    between atoms: _1104  and  _1105
REMARK  532  A    between atoms: _1105  and  _1106
REMARK  533  A    between atoms: _1105  and  _1108
REMARK  534  A    between atoms: _1108  and  _1109
REMARK  535  A    between atoms: _1112  and  _1113
REMARK  536  A    between atoms: _1113  and  _1114
REMARK  537  A    between atoms: _1113  and  _1116
REMARK  538  A    between atoms: _1116  and  _1117
REMARK  539  A    between atoms: _1117  and  _1118
REMARK  540  A    between atoms: _1121  and  _1122
REMARK  541  A    between atoms: _1122  and  _1123
REMARK  542  A    between atoms: _1122  and  _1125
REMARK  543  A    between atoms: _1125  and  _1126
REMARK  544  A    between atoms: _1126  and  _1127
REMARK  545  A    between atoms: _1130  and  _1131
REMARK  546  A    between atoms: _1131  and  _1132
REMARK  547  A    between atoms: _1131  and  _1134
REMARK  548  A    between atoms: _1134  and  _1135
REMARK  549  A    between atoms: _1142  and  _1143
REMARK  550  A    between atoms: _1143  and  _1144
REMARK  551  A    between atoms: _1147  and  _1148
REMARK  552  A    between atoms: _1148  and  _1149
REMARK  553  A    between atoms: _1148  and  _1151
REMARK  554  A    between atoms: _1151  and  _1152
REMARK  555  A    between atoms: _1161  and  _1162
REMARK  556  A    between atoms: _1162  and  _1163
REMARK  557  A    between atoms: _1162  and  _1165
REMARK  558  A    between atoms: _1165  and  _1166
REMARK  559  A    between atoms: _1166  and  _1167
REMARK  560  A    between atoms: _1170  and  _1171
REMARK  561  A    between atoms: _1171  and  _1172
REMARK  562  A    between atoms: _1171  and  _1174
REMARK  563  A    between atoms: _1176  and  _1177
REMARK  564  A    between atoms: _1177  and  _1178
REMARK  565  A    between atoms: _1177  and  _1180
REMARK  566  A    between atoms: _1182  and  _1183
REMARK  567  A    between atoms: _1183  and  _1184
REMARK  568  A    between atoms: _1187  and  _1188
REMARK  569  A    between atoms: _1188  and  _1189
REMARK  570  A    between atoms: _1191  and  _1192
REMARK  571  A    between atoms: _1192  and  _1193
REMARK  572  A    between atoms: _1195  and  _1196
REMARK  573  A    between atoms: _1196  and  _1197
REMARK  574  A    between atoms: _1196  and  _1199
REMARK  575  A    between atoms: _1201  and  _1202
REMARK  576  A    between atoms: _1202  and  _1203
REMARK  577  A    between atoms: _1202  and  _1205
REMARK  578  A    between atoms: _1205  and  _1206
REMARK  579  A    between atoms: _1212  and  _1213
REMARK  580  A    between atoms: _1213  and  _1214
REMARK  581  A    between atoms: _1213  and  _1216
REMARK  582  A    between atoms: _1219  and  _1220
REMARK  583  A    between atoms: _1220  and  _1221
REMARK  584  A    between atoms: _1220  and  _1223
REMARK  585  A    between atoms: _1226  and  _1227
REMARK  586  A    between atoms: _1227  and  _1228
REMARK  587  A    between atoms: _1227  and  _1230
REMARK  588  A    between atoms: _1230  and  _1231
REMARK  589  A    between atoms: _1231  and  _1232
REMARK  590  A    between atoms: _1232  and  _1233
REMARK  591  A    between atoms: _1237  and  _1238
REMARK  592  A    between atoms: _1238  and  _1239
REMARK  593  A    between atoms: _1238  and  _1241
REMARK  594  A    between atoms: _1244  and  _1245
REMARK  595  A    between atoms: _1245  and  _1246
REMARK  596  A    between atoms: _1245  and  _1248
REMARK  597  A    between atoms: _1248  and  _1249
REMARK  598  A    between atoms: _1252  and  _1253
REMARK  599  A    between atoms: _1253  and  _1254
REMARK  600  A    between atoms: _1253  and  _1256
REMARK  601  A    between atoms: _1259  and  _1260
REMARK  602  A    between atoms: _1260  and  _1261
REMARK  603  A    between atoms: _1263  and  _1264
REMARK  604  A    between atoms: _1264  and  _1265
REMARK  605  A    between atoms: _1264  and  _1267
REMARK  606  A    between atoms: _1267  and  _1268
REMARK  607  A    between atoms: _1268  and  _1269
REMARK  608  A    between atoms: _1273  and  _1274
REMARK  609  A    between atoms: _1279  and  _1280
REMARK  610  A    between atoms: _1280  and  _1285
REMARK  611  A    between atoms: _1285  and  _1286
REMARK  612  A    between atoms: _1286  and  _1287
REMARK  613  A    between atoms: _1287  and  _1289
REMARK  614  A    between atoms: _1292  and  _1293
REMARK  615  A    between atoms: _1293  and  _1294
REMARK  616  A    between atoms: _1296  and  _1297
REMARK  617  A    between atoms: _1297  and  _1298
REMARK  618  A    between atoms: _1297  and  _1300
REMARK  619  A    between atoms: _1300  and  _1301
REMARK  620  A    between atoms: _1301  and  _1302
REMARK  621  A    between atoms: _1302  and  _1303
REMARK  622  A    between atoms: _1307  and  _1308
REMARK  623  A    between atoms: _1308  and  _1309
REMARK  624  A    between atoms: _1311  and  _1312
REMARK  625  A    between atoms: _1312  and  _1313
REMARK  626  A    between atoms: _1312  and  _1315
REMARK  627  A    between atoms: _1318  and  _1319
REMARK  628  A    between atoms: _1319  and  _1320
REMARK  629  A    between atoms: _1319  and  _1322
REMARK  630  A    between atoms: _1322  and  _1323
REMARK  631  A    between atoms: _1323  and  _1324
REMARK  632  A    between atoms: _1324  and  _1325
REMARK  633  A    between atoms: _1327  and  _1328
REMARK  634  A    between atoms: _1328  and  _1329
REMARK  635  A    between atoms: _1328  and  _1331
REMARK  636  A    between atoms: _1334  and  _1335
REMARK  637  A    between atoms: _1335  and  _1336
REMARK  638  A    between atoms: _1335  and  _1338
REMARK  639  A    between atoms: _1338  and  _1339
REMARK  640  A    between atoms: _1342  and  _1343
REMARK  641  A    between atoms: _1343  and  _1344
REMARK  642  A    between atoms: _1343  and  _1346
REMARK  643  A    between atoms: _1346  and  _1347
REMARK  644  A    between atoms: _1350  and  _1351
REMARK  645  A    between atoms: _1351  and  _1352
REMARK  646  A    between atoms: _1351  and  _1354
REMARK  647  A    between atoms: _1354  and  _1355
REMARK  648  A    between atoms: _1360  and  _1361
REMARK  649  A    between atoms: _1361  and  _1362
REMARK  650  A    between atoms: _1361  and  _1364
REMARK  651  A    between atoms: _1364  and  _1365
REMARK  652  A    between atoms: _1368  and  _1369
REMARK  653  A    between atoms: _1369  and  _1370
REMARK  654  A    between atoms: _1369  and  _1372
REMARK  655  A    between atoms: _1372  and  _1373
REMARK  656  A    between atoms: _1373  and  _1374
REMARK  657  A    between atoms: _1374  and  _1375
REMARK  658  A    between atoms: _1377  and  _1378
REMARK  659  A    between atoms: _1378  and  _1379
REMARK  660  A    between atoms: _1378  and  _1381
REMARK  661  A    between atoms: _1381  and  _1382
REMARK  662  A    between atoms: _1382  and  _1383
REMARK  663  A    between atoms: _1386  and  _1387
REMARK  664  A    between atoms: _1387  and  _1388
REMARK  665  A    between atoms: _1387  and  _1390
REMARK  666  A    between atoms: _1390  and  _1391
REMARK  667  A    between atoms: _1394  and  _1395
REMARK  668  A    between atoms: _1395  and  _1396
REMARK  669  A    between atoms: _1395  and  _1398
REMARK  670  A    between atoms: _1398  and  _1399
REMARK  671  A    between atoms: _1399  and  _1400
REMARK  672  A    between atoms: _1403  and  _1404
REMARK  673  A    between atoms: _1404  and  _1405
REMARK  674  A    between atoms: _1404  and  _1407
REMARK  675  A    between atoms: _1410  and  _1411
REMARK  676  A    between atoms: _1411  and  _1412
REMARK  677  A    between atoms: _1411  and  _1414
REMARK  678  A    between atoms: _1414  and  _1415
REMARK  679  A    between atoms: _1415  and  _1416
REMARK  680  A    between atoms: _1419  and  _1420
REMARK  681  A    between atoms: _1420  and  _1421
REMARK  682  A    between atoms: _1420  and  _1423
REMARK  683  A    between atoms: _1423  and  _1424
REMARK  684  A    between atoms: _1431  and  _1432
REMARK  685  A    between atoms: _1432  and  _1433
REMARK  686  A    between atoms: _1432  and  _1435
REMARK  687  A    between atoms: _1435  and  _1436
REMARK  688  A    between atoms: _1439  and  _1440
REMARK  689  A    between atoms: _1440  and  _1441
REMARK  690  A    between atoms: _1440  and  _1443
REMARK  691  A    between atoms: _1443  and  _1444
REMARK  692  A    between atoms: _1444  and  _1445
REMARK  693  A    between atoms: _1448  and  _1449
REMARK  694  A    between atoms: _1449  and  _1450
REMARK  695  A    between atoms: _1449  and  _1452
REMARK  696  A    between atoms: _1452  and  _1453
REMARK  697  A    between atoms: _1453  and  _1454
REMARK  698  A    between atoms: _1457  and  _1458
REMARK  699  A    between atoms: _1458  and  _1459
REMARK  700  A    between atoms: _1458  and  _1461
REMARK  701  A    between atoms: _1461  and  _1462
REMARK  702  A    between atoms: _1462  and  _1463
REMARK  703  A    between atoms: _1463  and  _1464
REMARK  704  A    between atoms: _1468  and  _1469
REMARK  705  A    between atoms: _1469  and  _1470
REMARK  706  A    between atoms: _1469  and  _1472
REMARK  707  A    between atoms: _1472  and  _1473
REMARK  708  A    between atoms: _1473  and  _1474
REMARK  709  A    between atoms: _1474  and  _1475
REMARK  710  A    between atoms: _1479  and  _1480
REMARK  711  A    between atoms: _1480  and  _1481
REMARK  712  A    between atoms: _1480  and  _1483
REMARK  713  A    between atoms: _1483  and  _1484
REMARK  714  A    between atoms: _1487  and  _1488
REMARK  715  A    between atoms: _1488  and  _1489
REMARK  716  A    between atoms: _1488  and  _1491
REMARK  717  A    between atoms: _1491  and  _1492
REMARK  718  A    between atoms: _1492  and  _1493
REMARK  719  A    between atoms: _1493  and  _1494
REMARK  720  A    between atoms: _1496  and  _1497
REMARK  721  A    between atoms: _1497  and  _1498
REMARK  722  A    between atoms: _1497  and  _1500
REMARK  723  A    between atoms: _1500  and  _1501
REMARK  724  A    between atoms: _1501  and  _1502
REMARK  725  A    between atoms: _1505  and  _1506
REMARK  726  A    between atoms: _1506  and  _1507
REMARK  727  A    between atoms: _1506  and  _1509
REMARK  728  A    between atoms: _1509  and  _1510
REMARK  729  A    between atoms: _1513  and  _1514
REMARK  730  A    between atoms: _1514  and  _1515
REMARK  731  A    between atoms: _1514  and  _1517
REMARK  732  A    between atoms: _1520  and  _1521
REMARK  733  A    between atoms: _1521  and  _1522
REMARK  734  A    between atoms: _1521  and  _1524
REMARK  735  A    between atoms: _1524  and  _1525
REMARK  736  A    between atoms: _1525  and  _1526
REMARK  737  A    between atoms: _1526  and  _1527
REMARK  738  A    between atoms: _1529  and  _1530
REMARK  739  A    between atoms: _1530  and  _1531
REMARK  740  A    between atoms: _1530  and  _1533
REMARK  741  A    between atoms: _1533  and  _1534
REMARK  742  A    between atoms: _1534  and  _1535
REMARK  743  A    between atoms: _1535  and  _1536
REMARK  744  A    between atoms: _1538  and  _1539
REMARK  745  A    between atoms: _1539  and  _1540
REMARK  746  A    between atoms: _1539  and  _1542
REMARK  747  A    between atoms: _1542  and  _1543
REMARK  748  A    between atoms: _1548  and  _1549
REMARK  749  A    between atoms: _1549  and  _1550
REMARK  750  A    between atoms: _1549  and  _1552
REMARK  751  A    between atoms: _1554  and  _1555
REMARK  752  A    between atoms: _1555  and  _1556
REMARK  753  A    between atoms: _1555  and  _1558
REMARK  754  A    between atoms: _1558  and  _1559
REMARK  755  A    between atoms: _1559  and  _1560
REMARK  756  A    between atoms: _1563  and  _1564
REMARK  757  A    between atoms: _1564  and  _1565
REMARK  758  A    between atoms: _1564  and  _1567
REMARK  759  A    between atoms: _1567  and  _1568
REMARK  760  A    between atoms: _1574  and  _1575
REMARK  761  A    between atoms: _1575  and  _1576
REMARK  762  A    between atoms: _1575  and  _1578
REMARK  763  A    between atoms: _1578  and  _1579
REMARK  764  A    between atoms: _1582  and  _1583
REMARK  765  A    between atoms: _1583  and  _1584
REMARK  766  A    between atoms: _1586  and  _1587
REMARK  767  A    between atoms: _1587  and  _1588
REMARK  768  A    between atoms: _1587  and  _1590
REMARK  769  A    between atoms: _1590  and  _1591
REMARK  770  A    between atoms: _1599  and  _1600
REMARK  771  A    between atoms: _1605  and  _1606
REMARK  772  A    between atoms: _1606  and  _1607
REMARK  773  A    between atoms: _1606  and  _1609
REMARK  774  A    between atoms: _1609  and  _1610
REMARK  775  A    between atoms: _1613  and  _1614
REMARK  776  A    between atoms: _1614  and  _1615
REMARK  777  A    between atoms: _1614  and  _1617
REMARK  778  A    between atoms: _1620  and  _1621
REMARK  779  A    between atoms: _1621  and  _1622
REMARK  780  A    between atoms: _1621  and  _1624
REMARK  781  A    between atoms: _1624  and  _1625
REMARK  782  A    between atoms: _1628  and  _1629
REMARK  783  A    between atoms: _1629  and  _1630
REMARK  784  A    between atoms: _1629  and  _1632
REMARK  785  A    between atoms: _1632  and  _1633
REMARK  786  A    between atoms: _1639  and  _1640
REMARK  787  A    between atoms: _1640  and  _1641
REMARK  788  A    between atoms: _1640  and  _1643
REMARK  789  A    between atoms: _1646  and  _1647
REMARK  790  A    between atoms: _1647  and  _1648
REMARK  791  A    between atoms: _1647  and  _1650
REMARK  792  A    between atoms: _1650  and  _1651
REMARK  793  A    between atoms: _1651  and  _1652
REMARK  794  A    between atoms: _1655  and  _1656
REMARK  795  A    between atoms: _1656  and  _1657
REMARK  796  A    between atoms: _1656  and  _1659
REMARK  797  A    between atoms: _1659  and  _1660
REMARK  798  A    between atoms: _1660  and  _1661
REMARK                            x       y       z     vdW  Elec       q    Type
REMARK                         _______ _______ _______ _____ _____    ______ ____
ROOT
ATOM      1  C   UNL     1      13.653 -11.887  27.590  0.00  0.00    +0.000 C 
ATOM      2  C   UNL     1      13.451 -11.720  26.245  0.00  0.00    +0.000 C 
ENDROOT
TORSDOF 0
REMARK  Name = /Users/mlugowska/PhD/ML_residence_time_prediction/protein_files/5NYI_protein.pdb
REMARK  798 active torsions:
REMARK  status: ('A' for Active; 'I' for Inactive)
REMARK    1  A    between atoms: _2  and  _3
REMARK    2  A    between atoms: _2  and  _5
REMARK    3  A    between atoms: _5  and  _6
REMARK    4  A    between atoms: _6  and  _7
REMARK    5  A    between atoms: _10  and  _11
REMARK    6  A    between atoms: _11  and  _12
REMARK    7  A    between atoms: _11  and  _14
REMARK    8  A    between atoms: _17  and  _18
REMARK    9  A    between atoms: _18  and  _19
REMARK   10  A    between atoms: _18  and  _21
REMARK   11  A    between atoms: _21  and  _22
REMARK   12  A    between atoms: _22  and  _23
REMARK   13  A    between atoms: _26  and  _27
REMARK   14  A    between atoms: _27  and  _28
REMARK   15  A    between atoms: _27  and  _30
REMARK   16  A    between atoms: _33  and  _34
REMARK   17  A    between atoms: _34  and  _35
REMARK   18  A    between atoms: _34  and  _37
REMARK   19  A    between atoms: _37  and  _38
REMARK   20  A    between atoms: _44  and  _45
REMARK   21  A    between atoms: _45  and  _46
REMARK   22  A    between atoms: _49  and  _50
REMARK   23  A    between atoms: _50  and  _51
REMARK   24  A    between atoms: _50  and  _53
REMARK   25  A    between atoms: _53  and  _54
REMARK   26  A    between atoms: _60  and  _61
REMARK   27  A    between atoms: _61  and  _62
REMARK   28  A    between atoms: _61  and  _64
REMARK   29  A    between atoms: _64  and  _65
REMARK   30  A    between atoms: _65  and  _66
REMARK   31  A    between atoms: _69  and  _70
REMARK   32  A    between atoms: _70  and  _71
REMARK   33  A    between atoms: _74  and  _75
REMARK   34  A    between atoms: _75  and  _76
REMARK   35  A    between atoms: _75  and  _78
REMARK   36  A    between atoms: _78  and  _79
REMARK   37  A    between atoms: _79  and  _80
REMARK   38  A    between atoms: _83  and  _84
REMARK   39  A    between atoms: _84  and  _86
REMARK   40  A    between atoms: _88  and  _90
REMARK   41  A    between atoms: _96  and  _97
REMARK   42  A    between atoms: _97  and  _98
REMARK   43  A    between atoms: _101  and  _102
REMARK   44  A    between atoms: _102  and  _103
REMARK   45  A    between atoms: _102  and  _105
REMARK   46  A    between atoms: _105  and  _106
REMARK   47  A    between atoms: _106  and  _107
REMARK   48  A    between atoms: _110  and  _111
REMARK   49  A    between atoms: _111  and  _112
REMARK   50  A    between atoms: _111  and  _114
REMARK   51  A    between atoms: _114  and  _115
REMARK   52  A    between atoms: _118  and  _119
REMARK   53  A    between atoms: _119  and  _120
REMARK   54  A    between atoms: _119  and  _122
REMARK   55  A    between atoms: _122  and  _123
REMARK   56  A    between atoms: _123  and  _124
REMARK   57  A    between atoms: _126  and  _127
REMARK   58  A    between atoms: _127  and  _128
REMARK   59  A    between atoms: _127  and  _130
REMARK   60  A    between atoms: _132  and  _133
REMARK   61  A    between atoms: _133  and  _134
REMARK   62  A    between atoms: _133  and  _136
REMARK   63  A    between atoms: _136  and  _137
REMARK   64  A    between atoms: _140  and  _141
REMARK   65  A    between atoms: _141  and  _142
REMARK   66  A    between atoms: _141  and  _144
REMARK   67  A    between atoms: _144  and  _145
REMARK   68  A    between atoms: _148  and  _149
REMARK   69  A    between atoms: _149  and  _150
REMARK   70  A    between atoms: _149  and  _152
REMARK   71  A    between atoms: _152  and  _153
REMARK   72  A    between atoms: _156  and  _157
REMARK   73  A    between atoms: _157  and  _158
REMARK   74  A    between atoms: _157  and  _160
REMARK   75  A    between atoms: _160  and  _161
REMARK   76  A    between atoms: _164  and  _165
REMARK   77  A    between atoms: _165  and  _166
REMARK   78  A    between atoms: _165  and  _168
REMARK   79  A    between atoms: _171  and  _172
REMARK   80  A    between atoms: _172  and  _173
REMARK   81  A    between atoms: _172  and  _175
REMARK   82  A    between atoms: _175  and  _176
REMARK   83  A    between atoms: _182  and  _183
REMARK   84  A    between atoms: _183  and  _184
REMARK   85  A    between atoms: _183  and  _186
REMARK   86  A    between atoms: _186  and  _187
REMARK   87  A    between atoms: _194  and  _195
REMARK   88  A    between atoms: _195  and  _196
REMARK   89  A    between atoms: _195  and  _198
REMARK   90  A    between atoms: _200  and  _201
REMARK   91  A    between atoms: _201  and  _202
REMARK   92  A    between atoms: _201  and  _204
REMARK   93  A    between atoms: _204  and  _205
REMARK   94  A    between atoms: _208  and  _209
REMARK   95  A    between atoms: _209  and  _210
REMARK   96  A    between atoms: _209  and  _212
REMARK   97  A    between atoms: _212  and  _213
REMARK   98  A    between atoms: _213  and  _214
REMARK   99  A    between atoms: _214  and  _215
REMARK  100  A    between atoms: _217  and  _218
REMARK  101  A    between atoms: _218  and  _219
REMARK  102  A    between atoms: _218  and  _221
REMARK  103  A    between atoms: _221  and  _222
REMARK  104  A    between atoms: _222  and  _223
REMARK  105  A    between atoms: _226  and  _227
REMARK  106  A    between atoms: _227  and  _228
REMARK  107  A    between atoms: _227  and  _230
REMARK  108  A    between atoms: _230  and  _231
REMARK  109  A    between atoms: _234  and  _235
REMARK  110  A    between atoms: _235  and  _236
REMARK  111  A    between atoms: _235  and  _238
REMARK  112  A    between atoms: _238  and  _239
REMARK  113  A    between atoms: _245  and  _246
REMARK  114  A    between atoms: _246  and  _247
REMARK  115  A    between atoms: _246  and  _249
REMARK  116  A    between atoms: _249  and  _250
REMARK  117  A    between atoms: _253  and  _254
REMARK  118  A    between atoms: _254  and  _255
REMARK  119  A    between atoms: _254  and  _257
REMARK  120  A    between atoms: _257  and  _258
REMARK  121  A    between atoms: _258  and  _259
REMARK  122  A    between atoms: _259  and  _260
REMARK  123  A    between atoms: _264  and  _265
REMARK  124  A    between atoms: _265  and  _266
REMARK  125  A    between atoms: _265  and  _268
REMARK  126  A    between atoms: _268  and  _269
REMARK  127  A    between atoms: _269  and  _270
REMARK  128  A    between atoms: _273  and  _274
REMARK  129  A    between atoms: _274  and  _275
REMARK  130  A    between atoms: _274  and  _277
REMARK  131  A    between atoms: _277  and  _278
REMARK  132  A    between atoms: _281  and  _282
REMARK  133  A    between atoms: _282  and  _283
REMARK  134  A    between atoms: _282  and  _285
REMARK  135  A    between atoms: _285  and  _286
REMARK  136  A    between atoms: _289  and  _290
REMARK  137  A    between atoms: _290  and  _295
REMARK  138  A    between atoms: _298  and  _299
REMARK  139  A    between atoms: _299  and  _300
REMARK  140  A    between atoms: _299  and  _302
REMARK  141  A    between atoms: _302  and  _303
REMARK  142  A    between atoms: _306  and  _307
REMARK  143  A    between atoms: _307  and  _308
REMARK  144  A    between atoms: _307  and  _310
REMARK  145  A    between atoms: _312  and  _313
REMARK  146  A    between atoms: _313  and  _314
REMARK  147  A    between atoms: _313  and  _316
REMARK  148  A    between atoms: _318  and  _319
REMARK  149  A    between atoms: _319  and  _320
REMARK  150  A    between atoms: _319  and  _322
REMARK  151  A    between atoms: _322  and  _323
REMARK  152  A    between atoms: _326  and  _327
REMARK  153  A    between atoms: _327  and  _328
REMARK  154  A    between atoms: _331  and  _332
REMARK  155  A    between atoms: _332  and  _333
REMARK  156  A    between atoms: _332  and  _335
REMARK  157  A    between atoms: _335  and  _336
REMARK  158  A    between atoms: _339  and  _340
REMARK  159  A    between atoms: _340  and  _341
REMARK  160  A    between atoms: _340  and  _343
REMARK  161  A    between atoms: _343  and  _344
REMARK  162  A    between atoms: _347  and  _348
REMARK  163  A    between atoms: _348  and  _349
REMARK  164  A    between atoms: _348  and  _351
REMARK  165  A    between atoms: _351  and  _352
REMARK  166  A    between atoms: _352  and  _353
REMARK  167  A    between atoms: _353  and  _354
REMARK  168  A    between atoms: _356  and  _357
REMARK  169  A    between atoms: _357  and  _358
REMARK  170  A    between atoms: _357  and  _360
REMARK  171  A    between atoms: _360  and  _361
REMARK  172  A    between atoms: _364  and  _365
REMARK  173  A    between atoms: _365  and  _366
REMARK  174  A    between atoms: _365  and  _368
REMARK  175  A    between atoms: _368  and  _369
REMARK  176  A    between atoms: _369  and  _370
REMARK  177  A    between atoms: _370  and  _371
REMARK  178  A    between atoms: _375  and  _376
REMARK  179  A    between atoms: _376  and  _377
REMARK  180  A    between atoms: _376  and  _379
REMARK  181  A    between atoms: _379  and  _380
REMARK  182  A    between atoms: _387  and  _388
REMARK  183  A    between atoms: _388  and  _389
REMARK  184  A    between atoms: _388  and  _391
REMARK  185  A    between atoms: _391  and  _392
REMARK  186  A    between atoms: _392  and  _393
REMARK  187  A    between atoms: _396  and  _397
REMARK  188  A    between atoms: _397  and  _398
REMARK  189  A    between atoms: _397  and  _400
REMARK  190  A    between atoms: _403  and  _404
REMARK  191  A    between atoms: _404  and  _405
REMARK  192  A    between atoms: _404  and  _407
REMARK  193  A    between atoms: _407  and  _408
REMARK  194  A    between atoms: _411  and  _412
REMARK  195  A    between atoms: _412  and  _413
REMARK  196  A    between atoms: _412  and  _415
REMARK  197  A    between atoms: _418  and  _419
REMARK  198  A    between atoms: _419  and  _420
REMARK  199  A    between atoms: _419  and  _422
REMARK  200  A    between atoms: _422  and  _423
REMARK  201  A    between atoms: _427  and  _428
REMARK  202  A    between atoms: _433  and  _434
REMARK  203  A    between atoms: _434  and  _435
REMARK  204  A    between atoms: _434  and  _437
REMARK  205  A    between atoms: _439  and  _440
REMARK  206  A    between atoms: _440  and  _441
REMARK  207  A    between atoms: _440  and  _443
REMARK  208  A    between atoms: _443  and  _444
REMARK  209  A    between atoms: _444  and  _445
REMARK  210  A    between atoms: _445  and  _446
REMARK  211  A    between atoms: _448  and  _449
REMARK  212  A    between atoms: _449  and  _450
REMARK  213  A    between atoms: _449  and  _452
REMARK  214  A    between atoms: _452  and  _453
REMARK  215  A    between atoms: _456  and  _457
REMARK  216  A    between atoms: _457  and  _458
REMARK  217  A    between atoms: _457  and  _460
REMARK  218  A    between atoms: _460  and  _461
REMARK  219  A    between atoms: _464  and  _465
REMARK  220  A    between atoms: _465  and  _466
REMARK  221  A    between atoms: _465  and  _468
REMARK  222  A    between atoms: _470  and  _471
REMARK  223  A    between atoms: _471  and  _472
REMARK  224  A    between atoms: _474  and  _475
REMARK  225  A    between atoms: _475  and  _476
REMARK  226  A    between atoms: _475  and  _478
REMARK  227  A    between atoms: _478  and  _479
REMARK  228  A    between atoms: _479  and  _480
REMARK  229  A    between atoms: _480  and  _481
REMARK  230  A    between atoms: _483  and  _484
REMARK  231  A    between atoms: _484  and  _485
REMARK  232  A    between atoms: _484  and  _487
REMARK  233  A    between atoms: _487  and  _488
REMARK  234  A    between atoms: _488  and  _489
REMARK  235  A    between atoms: _492  and  _493
REMARK  236  A    between atoms: _493  and  _494
REMARK  237  A    between atoms: _493  and  _496
REMARK  238  A    between atoms: _496  and  _497
REMARK  239  A    between atoms: _500  and  _501
REMARK  240  A    between atoms: _501  and  _502
REMARK  241  A    between atoms: _501  and  _504
REMARK  242  A    between atoms: _504  and  _505
REMARK  243  A    between atoms: _510  and  _511
REMARK  244  A    between atoms: _511  and  _512
REMARK  245  A    between atoms: _511  and  _514
REMARK  246  A    between atoms: _514  and  _515
REMARK  247  A    between atoms: _518  and  _519
REMARK  248  A    between atoms: _519  and  _520
REMARK  249  A    between atoms: _519  and  _522
REMARK  250  A    between atoms: _522  and  _523
REMARK  251  A    between atoms: _526  and  _527
REMARK  252  A    between atoms: _527  and  _528
REMARK  253  A    between atoms: _527  and  _530
REMARK  254  A    between atoms: _530  and  _531
REMARK  255  A    between atoms: _534  and  _535
REMARK  256  A    between atoms: _535  and  _536
REMARK  257  A    between atoms: _535  and  _538
REMARK  258  A    between atoms: _538  and  _539
REMARK  259  A    between atoms: _543  and  _544
REMARK  260  A    between atoms: _549  and  _550
REMARK  261  A    between atoms: _550  and  _551
REMARK  262  A    between atoms: _550  and  _553
REMARK  263  A    between atoms: _553  and  _554
REMARK  264  A    between atoms: _557  and  _558
REMARK  265  A    between atoms: _558  and  _559
REMARK  266  A    between atoms: _558  and  _561
REMARK  267  A    between atoms: _561  and  _562
REMARK  268  A    between atoms: _562  and  _563
REMARK  269  A    between atoms: _563  and  _564
REMARK  270  A    between atoms: _566  and  _567
REMARK  271  A    between atoms: _567  and  _568
REMARK  272  A    between atoms: _567  and  _570
REMARK  273  A    between atoms: _570  and  _571
REMARK  274  A    between atoms: _571  and  _572
REMARK  275  A    between atoms: _575  and  _576
REMARK  276  A    between atoms: _576  and  _577
REMARK  277  A    between atoms: _576  and  _579
REMARK  278  A    between atoms: _579  and  _580
REMARK  279  A    between atoms: _583  and  _584
REMARK  280  A    between atoms: _584  and  _585
REMARK  281  A    between atoms: _584  and  _587
REMARK  282  A    between atoms: _587  and  _588
REMARK  283  A    between atoms: _588  and  _589
REMARK  284  A    between atoms: _589  and  _590
REMARK  285  A    between atoms: _594  and  _595
REMARK  286  A    between atoms: _595  and  _596
REMARK  287  A    between atoms: _595  and  _598
REMARK  288  A    between atoms: _601  and  _602
REMARK  289  A    between atoms: _602  and  _603
REMARK  290  A    between atoms: _602  and  _605
REMARK  291  A    between atoms: _605  and  _606
REMARK  292  A    between atoms: _609  and  _610
REMARK  293  A    between atoms: _610  and  _611
REMARK  294  A    between atoms: _610  and  _613
REMARK  295  A    between atoms: _616  and  _617
REMARK  296  A    between atoms: _617  and  _618
REMARK  297  A    between atoms: _617  and  _620
REMARK  298  A    between atoms: _620  and  _621
REMARK  299  A    between atoms: _624  and  _625
REMARK  300  A    between atoms: _625  and  _626
REMARK  301  A    between atoms: _625  and  _628
REMARK  302  A    between atoms: _631  and  _632
REMARK  303  A    between atoms: _632  and  _633
REMARK  304  A    between atoms: _632  and  _635
REMARK  305  A    between atoms: _635  and  _636
REMARK  306  A    between atoms: _639  and  _640
REMARK  307  A    between atoms: _640  and  _641
REMARK  308  A    between atoms: _640  and  _643
REMARK  309  A    between atoms: _646  and  _647
REMARK  310  A    between atoms: _647  and  _648
REMARK  311  A    between atoms: _650  and  _651
REMARK  312  A    between atoms: _651  and  _652
REMARK  313  A    between atoms: _651  and  _654
REMARK  314  A    between atoms: _654  and  _655
REMARK  315  A    between atoms: _658  and  _659
REMARK  316  A    between atoms: _659  and  _660
REMARK  317  A    between atoms: _662  and  _663
REMARK  318  A    between atoms: _663  and  _664
REMARK  319  A    between atoms: _663  and  _666
REMARK  320  A    between atoms: _666  and  _667
REMARK  321  A    between atoms: _667  and  _668
REMARK  322  A    between atoms: _670  and  _671
REMARK  323  A    between atoms: _671  and  _672
REMARK  324  A    between atoms: _671  and  _674
REMARK  325  A    between atoms: _677  and  _678
REMARK  326  A    between atoms: _678  and  _679
REMARK  327  A    between atoms: _678  and  _681
REMARK  328  A    between atoms: _681  and  _682
REMARK  329  A    between atoms: _682  and  _683
REMARK  330  A    between atoms: _683  and  _684
REMARK  331  A    between atoms: _686  and  _687
REMARK  332  A    between atoms: _687  and  _688
REMARK  333  A    between atoms: _691  and  _692
REMARK  334  A    between atoms: _692  and  _693
REMARK  335  A    between atoms: _692  and  _695
REMARK  336  A    between atoms: _695  and  _696
REMARK  337  A    between atoms: _699  and  _700
REMARK  338  A    between atoms: _700  and  _701
REMARK  339  A    between atoms: _700  and  _703
REMARK  340  A    between atoms: _703  and  _704
REMARK  341  A    between atoms: _707  and  _708
REMARK  342  A    between atoms: _708  and  _709
REMARK  343  A    between atoms: _708  and  _711
REMARK  344  A    between atoms: _711  and  _712
REMARK  345  A    between atoms: _715  and  _716
REMARK  346  A    between atoms: _716  and  _717
REMARK  347  A    between atoms: _716  and  _719
REMARK  348  A    between atoms: _719  and  _720
REMARK  349  A    between atoms: _723  and  _724
REMARK  350  A    between atoms: _724  and  _725
REMARK  351  A    between atoms: _724  and  _727
REMARK  352  A    between atoms: _727  and  _728
REMARK  353  A    between atoms: _733  and  _734
REMARK  354  A    between atoms: _733  and  _736
REMARK  355  A    between atoms: _736  and  _739
REMARK  356  A    between atoms: _739  and  _741
REMARK  357  A    between atoms: _741  and  _742
REMARK  358  A    between atoms: _744  and  _745
REMARK  359  A    between atoms: _745  and  _746
REMARK  360  A    between atoms: _748  and  _749
REMARK  361  A    between atoms: _749  and  _750
REMARK  362  A    between atoms: _749  and  _752
REMARK  363  A    between atoms: _755  and  _756
REMARK  364  A    between atoms: _756  and  _757
REMARK  365  A    between atoms: _756  and  _759
REMARK  366  A    between atoms: _759  and  _760
REMARK  367  A    between atoms: _763  and  _764
REMARK  368  A    between atoms: _764  and  _765
REMARK  369  A    between atoms: _768  and  _769
REMARK  370  A    between atoms: _769  and  _770
REMARK  371  A    between atoms: _769  and  _772
REMARK  372  A    between atoms: _772  and  _773
REMARK  373  A    between atoms: _773  and  _774
REMARK  374  A    between atoms: _774  and  _775
REMARK  375  A    between atoms: _777  and  _778
REMARK  376  A    between atoms: _778  and  _779
REMARK  377  A    between atoms: _778  and  _781
REMARK  378  A    between atoms: _783  and  _784
REMARK  379  A    between atoms: _784  and  _785
REMARK  380  A    between atoms: _787  and  _788
REMARK  381  A    between atoms: _788  and  _789
REMARK  382  A    between atoms: _788  and  _791
REMARK  383  A    between atoms: _794  and  _795
REMARK  384  A    between atoms: _795  and  _796
REMARK  385  A    between atoms: _795  and  _798
REMARK  386  A    between atoms: _798  and  _799
REMARK  387  A    between atoms: _799  and  _800
REMARK  388  A    between atoms: _800  and  _801
REMARK  389  A    between atoms: _803  and  _804
REMARK  390  A    between atoms: _804  and  _805
REMARK  391  A    between atoms: _808  and  _809
REMARK  392  A    between atoms: _809  and  _810
REMARK  393  A    between atoms: _809  and  _812
REMARK  394  A    between atoms: _812  and  _813
REMARK  395  A    between atoms: _819  and  _820
REMARK  396  A    between atoms: _820  and  _821
REMARK  397  A    between atoms: _820  and  _823
REMARK  398  A    between atoms: _823  and  _824
REMARK  399  A    between atoms: _824  and  _825
REMARK  400  A    between atoms: _827  and  _828
REMARK  401  A    between atoms: _828  and  _829
REMARK  402  A    between atoms: _828  and  _831
REMARK  403  A    between atoms: _831  and  _832
REMARK  404  A    between atoms: _832  and  _833
REMARK  405  A    between atoms: _836  and  _837
REMARK  406  A    between atoms: _837  and  _838
REMARK  407  A    between atoms: _841  and  _842
REMARK  408  A    between atoms: _842  and  _843
REMARK  409  A    between atoms: _842  and  _845
REMARK  410  A    between atoms: _845  and  _846
REMARK  411  A    between atoms: _849  and  _850
REMARK  412  A    between atoms: _850  and  _851
REMARK  413  A    between atoms: _850  and  _853
REMARK  414  A    between atoms: _853  and  _854
REMARK  415  A    between atoms: _854  and  _855
REMARK  416  A    between atoms: _858  and  _859
REMARK  417  A    between atoms: _859  and  _860
REMARK  418  A    between atoms: _863  and  _864
REMARK  419  A    between atoms: _864  and  _865
REMARK  420  A    between atoms: _867  and  _868
REMARK  421  A    between atoms: _868  and  _869
REMARK  422  A    between atoms: _872  and  _873
REMARK  423  A    between atoms: _873  and  _874
REMARK  424  A    between atoms: _873  and  _876
REMARK  425  A    between atoms: _876  and  _877
REMARK  426  A    between atoms: _880  and  _881
REMARK  427  A    between atoms: _881  and  _882
REMARK  428  A    between atoms: _881  and  _884
REMARK  429  A    between atoms: _884  and  _885
REMARK  430  A    between atoms: _888  and  _889
REMARK  431  A    between atoms: _889  and  _890
REMARK  432  A    between atoms: _889  and  _892
REMARK  433  A    between atoms: _894  and  _895
REMARK  434  A    between atoms: _895  and  _896
REMARK  435  A    between atoms: _895  and  _898
REMARK  436  A    between atoms: _898  and  _899
REMARK  437  A    between atoms: _899  and  _900
REMARK  438  A    between atoms: _902  and  _903
REMARK  439  A    between atoms: _903  and  _904
REMARK  440  A    between atoms: _903  and  _906
REMARK  441  A    between atoms: _906  and  _907
REMARK  442  A    between atoms: _910  and  _911
REMARK  443  A    between atoms: _911  and  _912
REMARK  444  A    between atoms: _914  and  _915
REMARK  445  A    between atoms: _915  and  _916
REMARK  446  A    between atoms: _915  and  _918
REMARK  447  A    between atoms: _918  and  _919
REMARK  448  A    between atoms: _919  and  _920
REMARK  449  A    between atoms: _923  and  _924
REMARK  450  A    between atoms: _924  and  _925
REMARK  451  A    between atoms: _924  and  _927
REMARK  452  A    between atoms: _927  and  _928
REMARK  453  A    between atoms: _934  and  _935
REMARK  454  A    between atoms: _935  and  _936
REMARK  455  A    between atoms: _938  and  _939
REMARK  456  A    between atoms: _939  and  _940
REMARK  457  A    between atoms: _939  and  _942
REMARK  458  A    between atoms: _945  and  _946
REMARK  459  A    between atoms: _946  and  _947
REMARK  460  A    between atoms: _949  and  _950
REMARK  461  A    between atoms: _950  and  _951
REMARK  462  A    between atoms: _950  and  _953
REMARK  463  A    between atoms: _953  and  _954
REMARK  464  A    between atoms: _960  and  _961
REMARK  465  A    between atoms: _961  and  _962
REMARK  466  A    between atoms: _961  and  _964
REMARK  467  A    between atoms: _964  and  _965
REMARK  468  A    between atoms: _972  and  _973
REMARK  469  A    between atoms: _973  and  _974
REMARK  470  A    between atoms: _973  and  _976
REMARK  471  A    between atoms: _978  and  _979
REMARK  472  A    between atoms: _979  and  _980
REMARK  473  A    between atoms: _983  and  _984
REMARK  474  A    between atoms: _984  and  _985
REMARK  475  A    between atoms: _984  and  _987
REMARK  476  A    between atoms: _987  and  _988
REMARK  477  A    between atoms: _995  and  _996
REMARK  478  A    between atoms: _996  and  _997
REMARK  479  A    between atoms: _996  and  _999
REMARK  480  A    between atoms: _999  and  _1000
REMARK  481  A    between atoms: _1003  and  _1004
REMARK  482  A    between atoms: _1004  and  _1005
REMARK  483  A    between atoms: _1004  and  _1007
REMARK  484  A    between atoms: _1010  and  _1011
REMARK  485  A    between atoms: _1011  and  _1012
REMARK  486  A    between atoms: _1015  and  _1016
REMARK  487  A    between atoms: _1016  and  _1017
REMARK  488  A    between atoms: _1016  and  _1019
REMARK  489  A    between atoms: _1019  and  _1020
REMARK  490  A    between atoms: _1020  and  _1021
REMARK  491  A    between atoms: _1024  and  _1025
REMARK  492  A    between atoms: _1025  and  _1026
REMARK  493  A    between atoms: _1025  and  _1028
REMARK  494  A    between atoms: _1028  and  _1029
REMARK  495  A    between atoms: _1029  and  _1030
REMARK  496  A    between atoms: _1030  and  _1031
REMARK  497  A    between atoms: _1033  and  _1034
REMARK  498  A    between atoms: _1034  and  _1035
REMARK  499  A    between atoms: _1034  and  _1037
REMARK  500  A    between atoms: _1040  and  _1041
REMARK  501  A    between atoms: _1041  and  _1042
REMARK  502  A    between atoms: _1041  and  _1044
REMARK  503  A    between atoms: _1047  and  _1048
REMARK  504  A    between atoms: _1048  and  _1049
REMARK  505  A    between atoms: _1048  and  _1051
REMARK  506  A    between atoms: _1054  and  _1055
REMARK  507  A    between atoms: _1055  and  _1056
REMARK  508  A    between atoms: _1055  and  _1058
REMARK  509  A    between atoms: _1058  and  _1059
REMARK  510  A    between atoms: _1062  and  _1063
REMARK  511  A    between atoms: _1063  and  _1064
REMARK  512  A    between atoms: _1063  and  _1066
REMARK  513  A    between atoms: _1069  and  _1070
REMARK  514  A    between atoms: _1070  and  _1071
REMARK  515  A    between atoms: _1070  and  _1073
REMARK  516  A    between atoms: _1073  and  _1074
REMARK  517  A    between atoms: _1074  and  _1075
REMARK  518  A    between atoms: _1075  and  _1076
REMARK  519  A    between atoms: _1078  and  _1079
REMARK  520  A    between atoms: _1079  and  _1080
REMARK  521  A    between atoms: _1079  and  _1082
REMARK  522  A    between atoms: _1082  and  _1083
REMARK  523  A    between atoms: _1088  and  _1089
REMARK  524  A    between atoms: _1089  and  _1090
REMARK  525  A    between atoms: _1089  and  _1092
REMARK  526  A    between atoms: _1092  and  _1093
REMARK  527  A    between atoms: _1096  and  _1097
REMARK  528  A    between atoms: _1097  and  _1098
REMARK  529  A    between atoms: _1097  and  _1100
REMARK  530  A    between atoms: _1100  and  _1101
REMARK  531  A    between atoms: _1104  and  _1105
REMARK  532  A    between atoms: _1105  and  _1106
REMARK  533  A    between atoms: _1105  and  _1108
REMARK  534  A    between atoms: _1108  and  _1109
REMARK  535  A    between atoms: _1112  and  _1113
REMARK  536  A    between atoms: _1113  and  _1114
REMARK  537  A    between atoms: _1113  and  _1116
REMARK  538  A    between atoms: _1116  and  _1117
REMARK  539  A    between atoms: _1117  and  _1118
REMARK  540  A    between atoms: _1121  and  _1122
REMARK  541  A    between atoms: _1122  and  _1123
REMARK  542  A    between atoms: _1122  and  _1125
REMARK  543  A    between atoms: _1125  and  _1126
REMARK  544  A    between atoms: _1126  and  _1127
REMARK  545  A    between atoms: _1130  and  _1131
REMARK  546  A    between atoms: _1131  and  _1132
REMARK  547  A    between atoms: _1131  and  _1134
REMARK  548  A    between atoms: _1134  and  _1135
REMARK  549  A    between atoms: _1142  and  _1143
REMARK  550  A    between atoms: _1143  and  _1144
REMARK  551  A    between atoms: _1147  and  _1148
REMARK  552  A    between atoms: _1148  and  _1149
REMARK  553  A    between atoms: _1148  and  _1151
REMARK  554  A    between atoms: _1151  and  _1152
REMARK  555  A    between atoms: _1161  and  _1162
REMARK  556  A    between atoms: _1162  and  _1163
REMARK  557  A    between atoms: _1162  and  _1165
REMARK  558  A    between atoms: _1165  and  _1166
REMARK  559  A    between atoms: _1166  and  _1167
REMARK  560  A    between atoms: _1170  and  _1171
REMARK  561  A    between atoms: _1171  and  _1172
REMARK  562  A    between atoms: _1171  and  _1174
REMARK  563  A    between atoms: _1176  and  _1177
REMARK  564  A    between atoms: _1177  and  _1178
REMARK  565  A    between atoms: _1177  and  _1180
REMARK  566  A    between atoms: _1182  and  _1183
REMARK  567  A    between atoms: _1183  and  _1184
REMARK  568  A    between atoms: _1187  and  _1188
REMARK  569  A    between atoms: _1188  and  _1189
REMARK  570  A    between atoms: _1191  and  _1192
REMARK  571  A    between atoms: _1192  and  _1193
REMARK  572  A    between atoms: _1195  and  _1196
REMARK  573  A    between atoms: _1196  and  _1197
REMARK  574  A    between atoms: _1196  and  _1199
REMARK  575  A    between atoms: _1201  and  _1202
REMARK  576  A    between atoms: _1202  and  _1203
REMARK  577  A    between atoms: _1202  and  _1205
REMARK  578  A    between atoms: _1205  and  _1206
REMARK  579  A    between atoms: _1212  and  _1213
REMARK  580  A    between atoms: _1213  and  _1214
REMARK  581  A    between atoms: _1213  and  _1216
REMARK  582  A    between atoms: _1219  and  _1220
REMARK  583  A    between atoms: _1220  and  _1221
REMARK  584  A    between atoms: _1220  and  _1223
REMARK  585  A    between atoms: _1226  and  _1227
REMARK  586  A    between atoms: _1227  and  _1228
REMARK  587  A    between atoms: _1227  and  _1230
REMARK  588  A    between atoms: _1230  and  _1231
REMARK  589  A    between atoms: _1231  and  _1232
REMARK  590  A    between atoms: _1232  and  _1233
REMARK  591  A    between atoms: _1237  and  _1238
REMARK  592  A    between atoms: _1238  and  _1239
REMARK  593  A    between atoms: _1238  and  _1241
REMARK  594  A    between atoms: _1244  and  _1245
REMARK  595  A    between atoms: _1245  and  _1246
REMARK  596  A    between atoms: _1245  and  _1248
REMARK  597  A    between atoms: _1248  and  _1249
REMARK  598  A    between atoms: _1252  and  _1253
REMARK  599  A    between atoms: _1253  and  _1254
REMARK  600  A    between atoms: _1253  and  _1256
REMARK  601  A    between atoms: _1259  and  _1260
REMARK  602  A    between atoms: _1260  and  _1261
REMARK  603  A    between atoms: _1263  and  _1264
REMARK  604  A    between atoms: _1264  and  _1265
REMARK  605  A    between atoms: _1264  and  _1267
REMARK  606  A    between atoms: _1267  and  _1268
REMARK  607  A    between atoms: _1268  and  _1269
REMARK  608  A    between atoms: _1273  and  _1274
REMARK  609  A    between atoms: _1279  and  _1280
REMARK  610  A    between atoms: _1280  and  _1285
REMARK  611  A    between atoms: _1285  and  _1286
REMARK  612  A    between atoms: _1286  and  _1287
REMARK  613  A    between atoms: _1287  and  _1289
REMARK  614  A    between atoms: _1292  and  _1293
REMARK  615  A    between atoms: _1293  and  _1294
REMARK  616  A    between atoms: _1296  and  _1297
REMARK  617  A    between atoms: _1297  and  _1298
REMARK  618  A    between atoms: _1297  and  _1300
REMARK  619  A    between atoms: _1300  and  _1301
REMARK  620  A    between atoms: _1301  and  _1302
REMARK  621  A    between atoms: _1302  and  _1303
REMARK  622  A    between atoms: _1307  and  _1308
REMARK  623  A    between atoms: _1308  and  _1309
REMARK  624  A    between atoms: _1311  and  _1312
REMARK  625  A    between atoms: _1312  and  _1313
REMARK  626  A    between atoms: _1312  and  _1315
REMARK  627  A    between atoms: _1318  and  _1319
REMARK  628  A    between atoms: _1319  and  _1320
REMARK  629  A    between atoms: _1319  and  _1322
REMARK  630  A    between atoms: _1322  and  _1323
REMARK  631  A    between atoms: _1323  and  _1324
REMARK  632  A    between atoms: _1324  and  _1325
REMARK  633  A    between atoms: _1327  and  _1328
REMARK  634  A    between atoms: _1328  and  _1329
REMARK  635  A    between atoms: _1328  and  _1331
REMARK  636  A    between atoms: _1334  and  _1335
REMARK  637  A    between atoms: _1335  and  _1336
REMARK  638  A    between atoms: _1335  and  _1338
REMARK  639  A    between atoms: _1338  and  _1339
REMARK  640  A    between atoms: _1342  and  _1343
REMARK  641  A    between atoms: _1343  and  _1344
REMARK  642  A    between atoms: _1343  and  _1346
REMARK  643  A    between atoms: _1346  and  _1347
REMARK  644  A    between atoms: _1350  and  _1351
REMARK  645  A    between atoms: _1351  and  _1352
REMARK  646  A    between atoms: _1351  and  _1354
REMARK  647  A    between atoms: _1354  and  _1355
REMARK  648  A    between atoms: _1360  and  _1361
REMARK  649  A    between atoms: _1361  and  _1362
REMARK  650  A    between atoms: _1361  and  _1364
REMARK  651  A    between atoms: _1364  and  _1365
REMARK  652  A    between atoms: _1368  and  _1369
REMARK  653  A    between atoms: _1369  and  _1370
REMARK  654  A    between atoms: _1369  and  _1372
REMARK  655  A    between atoms: _1372  and  _1373
REMARK  656  A    between atoms: _1373  and  _1374
REMARK  657  A    between atoms: _1374  and  _1375
REMARK  658  A    between atoms: _1377  and  _1378
REMARK  659  A    between atoms: _1378  and  _1379
REMARK  660  A    between atoms: _1378  and  _1381
REMARK  661  A    between atoms: _1381  and  _1382
REMARK  662  A    between atoms: _1382  and  _1383
REMARK  663  A    between atoms: _1386  and  _1387
REMARK  664  A    between atoms: _1387  and  _1388
REMARK  665  A    between atoms: _1387  and  _1390
REMARK  666  A    between atoms: _1390  and  _1391
REMARK  667  A    between atoms: _1394  and  _1395
REMARK  668  A    between atoms: _1395  and  _1396
REMARK  669  A    between atoms: _1395  and  _1398
REMARK  670  A    between atoms: _1398  and  _1399
REMARK  671  A    between atoms: _1399  and  _1400
REMARK  672  A    between atoms: _1403  and  _1404
REMARK  673  A    between atoms: _1404  and  _1405
REMARK  674  A    between atoms: _1404  and  _1407
REMARK  675  A    between atoms: _1410  and  _1411
REMARK  676  A    between atoms: _1411  and  _1412
REMARK  677  A    between atoms: _1411  and  _1414
REMARK  678  A    between atoms: _1414  and  _1415
REMARK  679  A    between atoms: _1415  and  _1416
REMARK  680  A    between atoms: _1419  and  _1420
REMARK  681  A    between atoms: _1420  and  _1421
REMARK  682  A    between atoms: _1420  and  _1423
REMARK  683  A    between atoms: _1423  and  _1424
REMARK  684  A    between atoms: _1431  and  _1432
REMARK  685  A    between atoms: _1432  and  _1433
REMARK  686  A    between atoms: _1432  and  _1435
REMARK  687  A    between atoms: _1435  and  _1436
REMARK  688  A    between atoms: _1439  and  _1440
REMARK  689  A    between atoms: _1440  and  _1441
REMARK  690  A    between atoms: _1440  and  _1443
REMARK  691  A    between atoms: _1443  and  _1444
REMARK  692  A    between atoms: _1444  and  _1445
REMARK  693  A    between atoms: _1448  and  _1449
REMARK  694  A    between atoms: _1449  and  _1450
REMARK  695  A    between atoms: _1449  and  _1452
REMARK  696  A    between atoms: _1452  and  _1453
REMARK  697  A    between atoms: _1453  and  _1454
REMARK  698  A    between atoms: _1457  and  _1458
REMARK  699  A    between atoms: _1458  and  _1459
REMARK  700  A    between atoms: _1458  and  _1461
REMARK  701  A    between atoms: _1461  and  _1462
REMARK  702  A    between atoms: _1462  and  _1463
REMARK  703  A    between atoms: _1463  and  _1464
REMARK  704  A    between atoms: _1468  and  _1469
REMARK  705  A    between atoms: _1469  and  _1470
REMARK  706  A    between atoms: _1469  and  _1472
REMARK  707  A    between atoms: _1472  and  _1473
REMARK  708  A    between atoms: _1473  and  _1474
REMARK  709  A    between atoms: _1474  and  _1475
REMARK  710  A    between atoms: _1479  and  _1480
REMARK  711  A    between atoms: _1480  and  _1481
REMARK  712  A    between atoms: _1480  and  _1483
REMARK  713  A    between atoms: _1483  and  _1484
REMARK  714  A    between atoms: _1487  and  _1488
REMARK  715  A    between atoms: _1488  and  _1489
REMARK  716  A    between atoms: _1488  and  _1491
REMARK  717  A    between atoms: _1491  and  _1492
REMARK  718  A    between atoms: _1492  and  _1493
REMARK  719  A    between atoms: _1493  and  _1494
REMARK  720  A    between atoms: _1496  and  _1497
REMARK  721  A    between atoms: _1497  and  _1498
REMARK  722  A    between atoms: _1497  and  _1500
REMARK  723  A    between atoms: _1500  and  _1501
REMARK  724  A    between atoms: _1501  and  _1502
REMARK  725  A    between atoms: _1505  and  _1506
REMARK  726  A    between atoms: _1506  and  _1507
REMARK  727  A    between atoms: _1506  and  _1509
REMARK  728  A    between atoms: _1509  and  _1510
REMARK  729  A    between atoms: _1513  and  _1514
REMARK  730  A    between atoms: _1514  and  _1515
REMARK  731  A    between atoms: _1514  and  _1517
REMARK  732  A    between atoms: _1520  and  _1521
REMARK  733  A    between atoms: _1521  and  _1522
REMARK  734  A    between atoms: _1521  and  _1524
REMARK  735  A    between atoms: _1524  and  _1525
REMARK  736  A    between atoms: _1525  and  _1526
REMARK  737  A    between atoms: _1526  and  _1527
REMARK  738  A    between atoms: _1529  and  _1530
REMARK  739  A    between atoms: _1530  and  _1531
REMARK  740  A    between atoms: _1530  and  _1533
REMARK  741  A    between atoms: _1533  and  _1534
REMARK  742  A    between atoms: _1534  and  _1535
REMARK  743  A    between atoms: _1535  and  _1536
REMARK  744  A    between atoms: _1538  and  _1539
REMARK  745  A    between atoms: _1539  and  _1540
REMARK  746  A    between atoms: _1539  and  _1542
REMARK  747  A    between atoms: _1542  and  _1543
REMARK  748  A    between atoms: _1548  and  _1549
REMARK  749  A    between atoms: _1549  and  _1550
REMARK  750  A    between atoms: _1549  and  _1552
REMARK  751  A    between atoms: _1554  and  _1555
REMARK  752  A    between atoms: _1555  and  _1556
REMARK  753  A    between atoms: _1555  and  _1558
REMARK  754  A    between atoms: _1558  and  _1559
REMARK  755  A    between atoms: _1559  and  _1560
REMARK  756  A    between atoms: _1563  and  _1564
REMARK  757  A    between atoms: _1564  and  _1565
REMARK  758  A    between atoms: _1564  and  _1567
REMARK  759  A    between atoms: _1567  and  _1568
REMARK  760  A    between atoms: _1574  and  _1575
REMARK  761  A    between atoms: _1575  and  _1576
REMARK  762  A    between atoms: _1575  and  _1578
REMARK  763  A    between atoms: _1578  and  _1579
REMARK  764  A    between atoms: _1582  and  _1583
REMARK  765  A    between atoms: _1583  and  _1584
REMARK  766  A    between atoms: _1586  and  _1587
REMARK  767  A    between atoms: _1587  and  _1588
REMARK  768  A    between atoms: _1587  and  _1590
REMARK  769  A    between atoms: _1590  and  _1591
REMARK  770  A    between atoms: _1599  and  _1600
REMARK  771  A    between atoms: _1605  and  _1606
REMARK  772  A    between atoms: _1606  and  _1607
REMARK  773  A    between atoms: _1606  and  _1609
REMARK  774  A    between atoms: _1609  and  _1610
REMARK  775  A    between atoms: _1613  and  _1614
REMARK  776  A    between atoms: _1614  and  _1615
REMARK  777  A    between atoms: _1614  and  _1617
REMARK  778  A    between atoms: _1620  and  _1621
REMARK  779  A    between atoms: _1621  and  _1622
REMARK  780  A    between atoms: _1621  and  _1624
REMARK  781  A    between atoms: _1624  and  _1625
REMARK  782  A    between atoms: _1628  and  _1629
REMARK  783  A    between atoms: _1629  and  _1630
REMARK  784  A    between atoms: _1629  and  _1632
REMARK  785  A    between atoms: _1632  and  _1633
REMARK  786  A    between atoms: _1639  and  _1640
REMARK  787  A    between atoms: _1640  and  _1641
REMARK  788  A    between atoms: _1640  and  _1643
REMARK  789  A    between atoms: _1646  and  _1647
REMARK  790  A    between atoms: _1647  and  _1648
REMARK  791  A    between atoms: _1647  and  _1650
REMARK  792  A    between atoms: _1650  and  _1651
REMARK  793  A    between atoms: _1651  and  _1652
REMARK  794  A    between atoms: _1655  and  _1656
REMARK  795  A    between atoms: _1656  and  _1657
REMARK  796  A    between atoms: _1656  and  _1659
REMARK  797  A    between atoms: _1659  and  _1660
REMARK  798  A    between atoms: _1660  and  _1661
REMARK                            x       y       z     vdW  Elec       q    Type
REMARK                         _______ _______ _______ _____ _____    ______ ____
ROOT
ATOM      1  C   UNL     1      12.866 -14.220  28.088  0.00  0.00    +0.000 C 
ENDROOT
TORSDOF 0
REMARK  Name = /Users/mlugowska/PhD/ML_residence_time_prediction/protein_files/5NYI_protein.pdb
REMARK  798 active torsions:
REMARK  status: ('A' for Active; 'I' for Inactive)
REMARK    1  A    between atoms: _2  and  _3
REMARK    2  A    between atoms: _2  and  _5
REMARK    3  A    between atoms: _5  and  _6
REMARK    4  A    between atoms: _6  and  _7
REMARK    5  A    between atoms: _10  and  _11
REMARK    6  A    between atoms: _11  and  _12
REMARK    7  A    between atoms: _11  and  _14
REMARK    8  A    between atoms: _17  and  _18
REMARK    9  A    between atoms: _18  and  _19
REMARK   10  A    between atoms: _18  and  _21
REMARK   11  A    between atoms: _21  and  _22
REMARK   12  A    between atoms: _22  and  _23
REMARK   13  A    between atoms: _26  and  _27
REMARK   14  A    between atoms: _27  and  _28
REMARK   15  A    between atoms: _27  and  _30
REMARK   16  A    between atoms: _33  and  _34
REMARK   17  A    between atoms: _34  and  _35
REMARK   18  A    between atoms: _34  and  _37
REMARK   19  A    between atoms: _37  and  _38
REMARK   20  A    between atoms: _44  and  _45
REMARK   21  A    between atoms: _45  and  _46
REMARK   22  A    between atoms: _49  and  _50
REMARK   23  A    between atoms: _50  and  _51
REMARK   24  A    between atoms: _50  and  _53
REMARK   25  A    between atoms: _53  and  _54
REMARK   26  A    between atoms: _60  and  _61
REMARK   27  A    between atoms: _61  and  _62
REMARK   28  A    between atoms: _61  and  _64
REMARK   29  A    between atoms: _64  and  _65
REMARK   30  A    between atoms: _65  and  _66
REMARK   31  A    between atoms: _69  and  _70
REMARK   32  A    between atoms: _70  and  _71
REMARK   33  A    between atoms: _74  and  _75
REMARK   34  A    between atoms: _75  and  _76
REMARK   35  A    between atoms: _75  and  _78
REMARK   36  A    between atoms: _78  and  _79
REMARK   37  A    between atoms: _79  and  _80
REMARK   38  A    between atoms: _83  and  _84
REMARK   39  A    between atoms: _84  and  _86
REMARK   40  A    between atoms: _88  and  _90
REMARK   41  A    between atoms: _96  and  _97
REMARK   42  A    between atoms: _97  and  _98
REMARK   43  A    between atoms: _101  and  _102
REMARK   44  A    between atoms: _102  and  _103
REMARK   45  A    between atoms: _102  and  _105
REMARK   46  A    between atoms: _105  and  _106
REMARK   47  A    between atoms: _106  and  _107
REMARK   48  A    between atoms: _110  and  _111
REMARK   49  A    between atoms: _111  and  _112
REMARK   50  A    between atoms: _111  and  _114
REMARK   51  A    between atoms: _114  and  _115
REMARK   52  A    between atoms: _118  and  _119
REMARK   53  A    between atoms: _119  and  _120
REMARK   54  A    between atoms: _119  and  _122
REMARK   55  A    between atoms: _122  and  _123
REMARK   56  A    between atoms: _123  and  _124
REMARK   57  A    between atoms: _126  and  _127
REMARK   58  A    between atoms: _127  and  _128
REMARK   59  A    between atoms: _127  and  _130
REMARK   60  A    between atoms: _132  and  _133
REMARK   61  A    between atoms: _133  and  _134
REMARK   62  A    between atoms: _133  and  _136
REMARK   63  A    between atoms: _136  and  _137
REMARK   64  A    between atoms: _140  and  _141
REMARK   65  A    between atoms: _141  and  _142
REMARK   66  A    between atoms: _141  and  _144
REMARK   67  A    between atoms: _144  and  _145
REMARK   68  A    between atoms: _148  and  _149
REMARK   69  A    between atoms: _149  and  _150
REMARK   70  A    between atoms: _149  and  _152
REMARK   71  A    between atoms: _152  and  _153
REMARK   72  A    between atoms: _156  and  _157
REMARK   73  A    between atoms: _157  and  _158
REMARK   74  A    between atoms: _157  and  _160
REMARK   75  A    between atoms: _160  and  _161
REMARK   76  A    between atoms: _164  and  _165
REMARK   77  A    between atoms: _165  and  _166
REMARK   78  A    between atoms: _165  and  _168
REMARK   79  A    between atoms: _171  and  _172
REMARK   80  A    between atoms: _172  and  _173
REMARK   81  A    between atoms: _172  and  _175
REMARK   82  A    between atoms: _175  and  _176
REMARK   83  A    between atoms: _182  and  _183
REMARK   84  A    between atoms: _183  and  _184
REMARK   85  A    between atoms: _183  and  _186
REMARK   86  A    between atoms: _186  and  _187
REMARK   87  A    between atoms: _194  and  _195
REMARK   88  A    between atoms: _195  and  _196
REMARK   89  A    between atoms: _195  and  _198
REMARK   90  A    between atoms: _200  and  _201
REMARK   91  A    between atoms: _201  and  _202
REMARK   92  A    between atoms: _201  and  _204
REMARK   93  A    between atoms: _204  and  _205
REMARK   94  A    between atoms: _208  and  _209
REMARK   95  A    between atoms: _209  and  _210
REMARK   96  A    between atoms: _209  and  _212
REMARK   97  A    between atoms: _212  and  _213
REMARK   98  A    between atoms: _213  and  _214
REMARK   99  A    between atoms: _214  and  _215
REMARK  100  A    between atoms: _217  and  _218
REMARK  101  A    between atoms: _218  and  _219
REMARK  102  A    between atoms: _218  and  _221
REMARK  103  A    between atoms: _221  and  _222
REMARK  104  A    between atoms: _222  and  _223
REMARK  105  A    between atoms: _226  and  _227
REMARK  106  A    between atoms: _227  and  _228
REMARK  107  A    between atoms: _227  and  _230
REMARK  108  A    between atoms: _230  and  _231
REMARK  109  A    between atoms: _234  and  _235
REMARK  110  A    between atoms: _235  and  _236
REMARK  111  A    between atoms: _235  and  _238
REMARK  112  A    between atoms: _238  and  _239
REMARK  113  A    between atoms: _245  and  _246
REMARK  114  A    between atoms: _246  and  _247
REMARK  115  A    between atoms: _246  and  _249
REMARK  116  A    between atoms: _249  and  _250
REMARK  117  A    between atoms: _253  and  _254
REMARK  118  A    between atoms: _254  and  _255
REMARK  119  A    between atoms: _254  and  _257
REMARK  120  A    between atoms: _257  and  _258
REMARK  121  A    between atoms: _258  and  _259
REMARK  122  A    between atoms: _259  and  _260
REMARK  123  A    between atoms: _264  and  _265
REMARK  124  A    between atoms: _265  and  _266
REMARK  125  A    between atoms: _265  and  _268
REMARK  126  A    between atoms: _268  and  _269
REMARK  127  A    between atoms: _269  and  _270
REMARK  128  A    between atoms: _273  and  _274
REMARK  129  A    between atoms: _274  and  _275
REMARK  130  A    between atoms: _274  and  _277
REMARK  131  A    between atoms: _277  and  _278
REMARK  132  A    between atoms: _281  and  _282
REMARK  133  A    between atoms: _282  and  _283
REMARK  134  A    between atoms: _282  and  _285
REMARK  135  A    between atoms: _285  and  _286
REMARK  136  A    between atoms: _289  and  _290
REMARK  137  A    between atoms: _290  and  _295
REMARK  138  A    between atoms: _298  and  _299
REMARK  139  A    between atoms: _299  and  _300
REMARK  140  A    between atoms: _299  and  _302
REMARK  141  A    between atoms: _302  and  _303
REMARK  142  A    between atoms: _306  and  _307
REMARK  143  A    between atoms: _307  and  _308
REMARK  144  A    between atoms: _307  and  _310
REMARK  145  A    between atoms: _312  and  _313
REMARK  146  A    between atoms: _313  and  _314
REMARK  147  A    between atoms: _313  and  _316
REMARK  148  A    between atoms: _318  and  _319
REMARK  149  A    between atoms: _319  and  _320
REMARK  150  A    between atoms: _319  and  _322
REMARK  151  A    between atoms: _322  and  _323
REMARK  152  A    between atoms: _326  and  _327
REMARK  153  A    between atoms: _327  and  _328
REMARK  154  A    between atoms: _331  and  _332
REMARK  155  A    between atoms: _332  and  _333
REMARK  156  A    between atoms: _332  and  _335
REMARK  157  A    between atoms: _335  and  _336
REMARK  158  A    between atoms: _339  and  _340
REMARK  159  A    between atoms: _340  and  _341
REMARK  160  A    between atoms: _340  and  _343
REMARK  161  A    between atoms: _343  and  _344
REMARK  162  A    between atoms: _347  and  _348
REMARK  163  A    between atoms: _348  and  _349
REMARK  164  A    between atoms: _348  and  _351
REMARK  165  A    between atoms: _351  and  _352
REMARK  166  A    between atoms: _352  and  _353
REMARK  167  A    between atoms: _353  and  _354
REMARK  168  A    between atoms: _356  and  _357
REMARK  169  A    between atoms: _357  and  _358
REMARK  170  A    between atoms: _357  and  _360
REMARK  171  A    between atoms: _360  and  _361
REMARK  172  A    between atoms: _364  and  _365
REMARK  173  A    between atoms: _365  and  _366
REMARK  174  A    between atoms: _365  and  _368
REMARK  175  A    between atoms: _368  and  _369
REMARK  176  A    between atoms: _369  and  _370
REMARK  177  A    between atoms: _370  and  _371
REMARK  178  A    between atoms: _375  and  _376
REMARK  179  A    between atoms: _376  and  _377
REMARK  180  A    between atoms: _376  and  _379
REMARK  181  A    between atoms: _379  and  _380
REMARK  182  A    between atoms: _387  and  _388
REMARK  183  A    between atoms: _388  and  _389
REMARK  184  A    between atoms: _388  and  _391
REMARK  185  A    between atoms: _391  and  _392
REMARK  186  A    between atoms: _392  and  _393
REMARK  187  A    between atoms: _396  and  _397
REMARK  188  A    between atoms: _397  and  _398
REMARK  189  A    between atoms: _397  and  _400
REMARK  190  A    between atoms: _403  and  _404
REMARK  191  A    between atoms: _404  and  _405
REMARK  192  A    between atoms: _404  and  _407
REMARK  193  A    between atoms: _407  and  _408
REMARK  194  A    between atoms: _411  and  _412
REMARK  195  A    between atoms: _412  and  _413
REMARK  196  A    between atoms: _412  and  _415
REMARK  197  A    between atoms: _418  and  _419
REMARK  198  A    between atoms: _419  and  _420
REMARK  199  A    between atoms: _419  and  _422
REMARK  200  A    between atoms: _422  and  _423
REMARK  201  A    between atoms: _427  and  _428
REMARK  202  A    between atoms: _433  and  _434
REMARK  203  A    between atoms: _434  and  _435
REMARK  204  A    between atoms: _434  and  _437
REMARK  205  A    between atoms: _439  and  _440
REMARK  206  A    between atoms: _440  and  _441
REMARK  207  A    between atoms: _440  and  _443
REMARK  208  A    between atoms: _443  and  _444
REMARK  209  A    between atoms: _444  and  _445
REMARK  210  A    between atoms: _445  and  _446
REMARK  211  A    between atoms: _448  and  _449
REMARK  212  A    between atoms: _449  and  _450
REMARK  213  A    between atoms: _449  and  _452
REMARK  214  A    between atoms: _452  and  _453
REMARK  215  A    between atoms: _456  and  _457
REMARK  216  A    between atoms: _457  and  _458
REMARK  217  A    between atoms: _457  and  _460
REMARK  218  A    between atoms: _460  and  _461
REMARK  219  A    between atoms: _464  and  _465
REMARK  220  A    between atoms: _465  and  _466
REMARK  221  A    between atoms: _465  and  _468
REMARK  222  A    between atoms: _470  and  _471
REMARK  223  A    between atoms: _471  and  _472
REMARK  224  A    between atoms: _474  and  _475
REMARK  225  A    between atoms: _475  and  _476
REMARK  226  A    between atoms: _475  and  _478
REMARK  227  A    between atoms: _478  and  _479
REMARK  228  A    between atoms: _479  and  _480
REMARK  229  A    between atoms: _480  and  _481
REMARK  230  A    between atoms: _483  and  _484
REMARK  231  A    between atoms: _484  and  _485
REMARK  232  A    between atoms: _484  and  _487
REMARK  233  A    between atoms: _487  and  _488
REMARK  234  A    between atoms: _488  and  _489
REMARK  235  A    between atoms: _492  and  _493
REMARK  236  A    between atoms: _493  and  _494
REMARK  237  A    between atoms: _493  and  _496
REMARK  238  A    between atoms: _496  and  _497
REMARK  239  A    between atoms: _500  and  _501
REMARK  240  A    between atoms: _501  and  _502
REMARK  241  A    between atoms: _501  and  _504
REMARK  242  A    between atoms: _504  and  _505
REMARK  243  A    between atoms: _510  and  _511
REMARK  244  A    between atoms: _511  and  _512
REMARK  245  A    between atoms: _511  and  _514
REMARK  246  A    between atoms: _514  and  _515
REMARK  247  A    between atoms: _518  and  _519
REMARK  248  A    between atoms: _519  and  _520
REMARK  249  A    between atoms: _519  and  _522
REMARK  250  A    between atoms: _522  and  _523
REMARK  251  A    between atoms: _526  and  _527
REMARK  252  A    between atoms: _527  and  _528
REMARK  253  A    between atoms: _527  and  _530
REMARK  254  A    between atoms: _530  and  _531
REMARK  255  A    between atoms: _534  and  _535
REMARK  256  A    between atoms: _535  and  _536
REMARK  257  A    between atoms: _535  and  _538
REMARK  258  A    between atoms: _538  and  _539
REMARK  259  A    between atoms: _543  and  _544
REMARK  260  A    between atoms: _549  and  _550
REMARK  261  A    between atoms: _550  and  _551
REMARK  262  A    between atoms: _550  and  _553
REMARK  263  A    between atoms: _553  and  _554
REMARK  264  A    between atoms: _557  and  _558
REMARK  265  A    between atoms: _558  and  _559
REMARK  266  A    between atoms: _558  and  _561
REMARK  267  A    between atoms: _561  and  _562
REMARK  268  A    between atoms: _562  and  _563
REMARK  269  A    between atoms: _563  and  _564
REMARK  270  A    between atoms: _566  and  _567
REMARK  271  A    between atoms: _567  and  _568
REMARK  272  A    between atoms: _567  and  _570
REMARK  273  A    between atoms: _570  and  _571
REMARK  274  A    between atoms: _571  and  _572
REMARK  275  A    between atoms: _575  and  _576
REMARK  276  A    between atoms: _576  and  _577
REMARK  277  A    between atoms: _576  and  _579
REMARK  278  A    between atoms: _579  and  _580
REMARK  279  A    between atoms: _583  and  _584
REMARK  280  A    between atoms: _584  and  _585
REMARK  281  A    between atoms: _584  and  _587
REMARK  282  A    between atoms: _587  and  _588
REMARK  283  A    between atoms: _588  and  _589
REMARK  284  A    between atoms: _589  and  _590
REMARK  285  A    between atoms: _594  and  _595
REMARK  286  A    between atoms: _595  and  _596
REMARK  287  A    between atoms: _595  and  _598
REMARK  288  A    between atoms: _601  and  _602
REMARK  289  A    between atoms: _602  and  _603
REMARK  290  A    between atoms: _602  and  _605
REMARK  291  A    between atoms: _605  and  _606
REMARK  292  A    between atoms: _609  and  _610
REMARK  293  A    between atoms: _610  and  _611
REMARK  294  A    between atoms: _610  and  _613
REMARK  295  A    between atoms: _616  and  _617
REMARK  296  A    between atoms: _617  and  _618
REMARK  297  A    between atoms: _617  and  _620
REMARK  298  A    between atoms: _620  and  _621
REMARK  299  A    between atoms: _624  and  _625
REMARK  300  A    between atoms: _625  and  _626
REMARK  301  A    between atoms: _625  and  _628
REMARK  302  A    between atoms: _631  and  _632
REMARK  303  A    between atoms: _632  and  _633
REMARK  304  A    between atoms: _632  and  _635
REMARK  305  A    between atoms: _635  and  _636
REMARK  306  A    between atoms: _639  and  _640
REMARK  307  A    between atoms: _640  and  _641
REMARK  308  A    between atoms: _640  and  _643
REMARK  309  A    between atoms: _646  and  _647
REMARK  310  A    between atoms: _647  and  _648
REMARK  311  A    between atoms: _650  and  _651
REMARK  312  A    between atoms: _651  and  _652
REMARK  313  A    between atoms: _651  and  _654
REMARK  314  A    between atoms: _654  and  _655
REMARK  315  A    between atoms: _658  and  _659
REMARK  316  A    between atoms: _659  and  _660
REMARK  317  A    between atoms: _662  and  _663
REMARK  318  A    between atoms: _663  and  _664
REMARK  319  A    between atoms: _663  and  _666
REMARK  320  A    between atoms: _666  and  _667
REMARK  321  A    between atoms: _667  and  _668
REMARK  322  A    between atoms: _670  and  _671
REMARK  323  A    between atoms: _671  and  _672
REMARK  324  A    between atoms: _671  and  _674
REMARK  325  A    between atoms: _677  and  _678
REMARK  326  A    between atoms: _678  and  _679
REMARK  327  A    between atoms: _678  and  _681
REMARK  328  A    between atoms: _681  and  _682
REMARK  329  A    between atoms: _682  and  _683
REMARK  330  A    between atoms: _683  and  _684
REMARK  331  A    between atoms: _686  and  _687
REMARK  332  A    between atoms: _687  and  _688
REMARK  333  A    between atoms: _691  and  _692
REMARK  334  A    between atoms: _692  and  _693
REMARK  335  A    between atoms: _692  and  _695
REMARK  336  A    between atoms: _695  and  _696
REMARK  337  A    between atoms: _699  and  _700
REMARK  338  A    between atoms: _700  and  _701
REMARK  339  A    between atoms: _700  and  _703
REMARK  340  A    between atoms: _703  and  _704
REMARK  341  A    between atoms: _707  and  _708
REMARK  342  A    between atoms: _708  and  _709
REMARK  343  A    between atoms: _708  and  _711
REMARK  344  A    between atoms: _711  and  _712
REMARK  345  A    between atoms: _715  and  _716
REMARK  346  A    between atoms: _716  and  _717
REMARK  347  A    between atoms: _716  and  _719
REMARK  348  A    between atoms: _719  and  _720
REMARK  349  A    between atoms: _723  and  _724
REMARK  350  A    between atoms: _724  and  _725
REMARK  351  A    between atoms: _724  and  _727
REMARK  352  A    between atoms: _727  and  _728
REMARK  353  A    between atoms: _733  and  _734
REMARK  354  A    between atoms: _733  and  _736
REMARK  355  A    between atoms: _736  and  _739
REMARK  356  A    between atoms: _739  and  _741
REMARK  357  A    between atoms: _741  and  _742
REMARK  358  A    between atoms: _744  and  _745
REMARK  359  A    between atoms: _745  and  _746
REMARK  360  A    between atoms: _748  and  _749
REMARK  361  A    between atoms: _749  and  _750
REMARK  362  A    between atoms: _749  and  _752
REMARK  363  A    between atoms: _755  and  _756
REMARK  364  A    between atoms: _756  and  _757
REMARK  365  A    between atoms: _756  and  _759
REMARK  366  A    between atoms: _759  and  _760
REMARK  367  A    between atoms: _763  and  _764
REMARK  368  A    between atoms: _764  and  _765
REMARK  369  A    between atoms: _768  and  _769
REMARK  370  A    between atoms: _769  and  _770
REMARK  371  A    between atoms: _769  and  _772
REMARK  372  A    between atoms: _772  and  _773
REMARK  373  A    between atoms: _773  and  _774
REMARK  374  A    between atoms: _774  and  _775
REMARK  375  A    between atoms: _777  and  _778
REMARK  376  A    between atoms: _778  and  _779
REMARK  377  A    between atoms: _778  and  _781
REMARK  378  A    between atoms: _783  and  _784
REMARK  379  A    between atoms: _784  and  _785
REMARK  380  A    between atoms: _787  and  _788
REMARK  381  A    between atoms: _788  and  _789
REMARK  382  A    between atoms: _788  and  _791
REMARK  383  A    between atoms: _794  and  _795
REMARK  384  A    between atoms: _795  and  _796
REMARK  385  A    between atoms: _795  and  _798
REMARK  386  A    between atoms: _798  and  _799
REMARK  387  A    between atoms: _799  and  _800
REMARK  388  A    between atoms: _800  and  _801
REMARK  389  A    between atoms: _803  and  _804
REMARK  390  A    between atoms: _804  and  _805
REMARK  391  A    between atoms: _808  and  _809
REMARK  392  A    between atoms: _809  and  _810
REMARK  393  A    between atoms: _809  and  _812
REMARK  394  A    between atoms: _812  and  _813
REMARK  395  A    between atoms: _819  and  _820
REMARK  396  A    between atoms: _820  and  _821
REMARK  397  A    between atoms: _820  and  _823
REMARK  398  A    between atoms: _823  and  _824
REMARK  399  A    between atoms: _824  and  _825
REMARK  400  A    between atoms: _827  and  _828
REMARK  401  A    between atoms: _828  and  _829
REMARK  402  A    between atoms: _828  and  _831
REMARK  403  A    between atoms: _831  and  _832
REMARK  404  A    between atoms: _832  and  _833
REMARK  405  A    between atoms: _836  and  _837
REMARK  406  A    between atoms: _837  and  _838
REMARK  407  A    between atoms: _841  and  _842
REMARK  408  A    between atoms: _842  and  _843
REMARK  409  A    between atoms: _842  and  _845
REMARK  410  A    between atoms: _845  and  _846
REMARK  411  A    between atoms: _849  and  _850
REMARK  412  A    between atoms: _850  and  _851
REMARK  413  A    between atoms: _850  and  _853
REMARK  414  A    between atoms: _853  and  _854
REMARK  415  A    between atoms: _854  and  _855
REMARK  416  A    between atoms: _858  and  _859
REMARK  417  A    between atoms: _859  and  _860
REMARK  418  A    between atoms: _863  and  _864
REMARK  419  A    between atoms: _864  and  _865
REMARK  420  A    between atoms: _867  and  _868
REMARK  421  A    between atoms: _868  and  _869
REMARK  422  A    between atoms: _872  and  _873
REMARK  423  A    between atoms: _873  and  _874
REMARK  424  A    between atoms: _873  and  _876
REMARK  425  A    between atoms: _876  and  _877
REMARK  426  A    between atoms: _880  and  _881
REMARK  427  A    between atoms: _881  and  _882
REMARK  428  A    between atoms: _881  and  _884
REMARK  429  A    between atoms: _884  and  _885
REMARK  430  A    between atoms: _888  and  _889
REMARK  431  A    between atoms: _889  and  _890
REMARK  432  A    between atoms: _889  and  _892
REMARK  433  A    between atoms: _894  and  _895
REMARK  434  A    between atoms: _895  and  _896
REMARK  435  A    between atoms: _895  and  _898
REMARK  436  A    between atoms: _898  and  _899
REMARK  437  A    between atoms: _899  and  _900
REMARK  438  A    between atoms: _902  and  _903
REMARK  439  A    between atoms: _903  and  _904
REMARK  440  A    between atoms: _903  and  _906
REMARK  441  A    between atoms: _906  and  _907
REMARK  442  A    between atoms: _910  and  _911
REMARK  443  A    between atoms: _911  and  _912
REMARK  444  A    between atoms: _914  and  _915
REMARK  445  A    between atoms: _915  and  _916
REMARK  446  A    between atoms: _915  and  _918
REMARK  447  A    between atoms: _918  and  _919
REMARK  448  A    between atoms: _919  and  _920
REMARK  449  A    between atoms: _923  and  _924
REMARK  450  A    between atoms: _924  and  _925
REMARK  451  A    between atoms: _924  and  _927
REMARK  452  A    between atoms: _927  and  _928
REMARK  453  A    between atoms: _934  and  _935
REMARK  454  A    between atoms: _935  and  _936
REMARK  455  A    between atoms: _938  and  _939
REMARK  456  A    between atoms: _939  and  _940
REMARK  457  A    between atoms: _939  and  _942
REMARK  458  A    between atoms: _945  and  _946
REMARK  459  A    between atoms: _946  and  _947
REMARK  460  A    between atoms: _949  and  _950
REMARK  461  A    between atoms: _950  and  _951
REMARK  462  A    between atoms: _950  and  _953
REMARK  463  A    between atoms: _953  and  _954
REMARK  464  A    between atoms: _960  and  _961
REMARK  465  A    between atoms: _961  and  _962
REMARK  466  A    between atoms: _961  and  _964
REMARK  467  A    between atoms: _964  and  _965
REMARK  468  A    between atoms: _972  and  _973
REMARK  469  A    between atoms: _973  and  _974
REMARK  470  A    between atoms: _973  and  _976
REMARK  471  A    between atoms: _978  and  _979
REMARK  472  A    between atoms: _979  and  _980
REMARK  473  A    between atoms: _983  and  _984
REMARK  474  A    between atoms: _984  and  _985
REMARK  475  A    between atoms: _984  and  _987
REMARK  476  A    between atoms: _987  and  _988
REMARK  477  A    between atoms: _995  and  _996
REMARK  478  A    between atoms: _996  and  _997
REMARK  479  A    between atoms: _996  and  _999
REMARK  480  A    between atoms: _999  and  _1000
REMARK  481  A    between atoms: _1003  and  _1004
REMARK  482  A    between atoms: _1004  and  _1005
REMARK  483  A    between atoms: _1004  and  _1007
REMARK  484  A    between atoms: _1010  and  _1011
REMARK  485  A    between atoms: _1011  and  _1012
REMARK  486  A    between atoms: _1015  and  _1016
REMARK  487  A    between atoms: _1016  and  _1017
REMARK  488  A    between atoms: _1016  and  _1019
REMARK  489  A    between atoms: _1019  and  _1020
REMARK  490  A    between atoms: _1020  and  _1021
REMARK  491  A    between atoms: _1024  and  _1025
REMARK  492  A    between atoms: _1025  and  _1026
REMARK  493  A    between atoms: _1025  and  _1028
REMARK  494  A    between atoms: _1028  and  _1029
REMARK  495  A    between atoms: _1029  and  _1030
REMARK  496  A    between atoms: _1030  and  _1031
REMARK  497  A    between atoms: _1033  and  _1034
REMARK  498  A    between atoms: _1034  and  _1035
REMARK  499  A    between atoms: _1034  and  _1037
REMARK  500  A    between atoms: _1040  and  _1041
REMARK  501  A    between atoms: _1041  and  _1042
REMARK  502  A    between atoms: _1041  and  _1044
REMARK  503  A    between atoms: _1047  and  _1048
REMARK  504  A    between atoms: _1048  and  _1049
REMARK  505  A    between atoms: _1048  and  _1051
REMARK  506  A    between atoms: _1054  and  _1055
REMARK  507  A    between atoms: _1055  and  _1056
REMARK  508  A    between atoms: _1055  and  _1058
REMARK  509  A    between atoms: _1058  and  _1059
REMARK  510  A    between atoms: _1062  and  _1063
REMARK  511  A    between atoms: _1063  and  _1064
REMARK  512  A    between atoms: _1063  and  _1066
REMARK  513  A    between atoms: _1069  and  _1070
REMARK  514  A    between atoms: _1070  and  _1071
REMARK  515  A    between atoms: _1070  and  _1073
REMARK  516  A    between atoms: _1073  and  _1074
REMARK  517  A    between atoms: _1074  and  _1075
REMARK  518  A    between atoms: _1075  and  _1076
REMARK  519  A    between atoms: _1078  and  _1079
REMARK  520  A    between atoms: _1079  and  _1080
REMARK  521  A    between atoms: _1079  and  _1082
REMARK  522  A    between atoms: _1082  and  _1083
REMARK  523  A    between atoms: _1088  and  _1089
REMARK  524  A    between atoms: _1089  and  _1090
REMARK  525  A    between atoms: _1089  and  _1092
REMARK  526  A    between atoms: _1092  and  _1093
REMARK  527  A    between atoms: _1096  and  _1097
REMARK  528  A    between atoms: _1097  and  _1098
REMARK  529  A    between atoms: _1097  and  _1100
REMARK  530  A    between atoms: _1100  and  _1101
REMARK  531  A    between atoms: _1104  and  _1105
REMARK  532  A    between atoms: _1105  and  _1106
REMARK  533  A    between atoms: _1105  and  _1108
REMARK  534  A    between atoms: _1108  and  _1109
REMARK  535  A    between atoms: _1112  and  _1113
REMARK  536  A    between atoms: _1113  and  _1114
REMARK  537  A    between atoms: _1113  and  _1116
REMARK  538  A    between atoms: _1116  and  _1117
REMARK  539  A    between atoms: _1117  and  _1118
REMARK  540  A    between atoms: _1121  and  _1122
REMARK  541  A    between atoms: _1122  and  _1123
REMARK  542  A    between atoms: _1122  and  _1125
REMARK  543  A    between atoms: _1125  and  _1126
REMARK  544  A    between atoms: _1126  and  _1127
REMARK  545  A    between atoms: _1130  and  _1131
REMARK  546  A    between atoms: _1131  and  _1132
REMARK  547  A    between atoms: _1131  and  _1134
REMARK  548  A    between atoms: _1134  and  _1135
REMARK  549  A    between atoms: _1142  and  _1143
REMARK  550  A    between atoms: _1143  and  _1144
REMARK  551  A    between atoms: _1147  and  _1148
REMARK  552  A    between atoms: _1148  and  _1149
REMARK  553  A    between atoms: _1148  and  _1151
REMARK  554  A    between atoms: _1151  and  _1152
REMARK  555  A    between atoms: _1161  and  _1162
REMARK  556  A    between atoms: _1162  and  _1163
REMARK  557  A    between atoms: _1162  and  _1165
REMARK  558  A    between atoms: _1165  and  _1166
REMARK  559  A    between atoms: _1166  and  _1167
REMARK  560  A    between atoms: _1170  and  _1171
REMARK  561  A    between atoms: _1171  and  _1172
REMARK  562  A    between atoms: _1171  and  _1174
REMARK  563  A    between atoms: _1176  and  _1177
REMARK  564  A    between atoms: _1177  and  _1178
REMARK  565  A    between atoms: _1177  and  _1180
REMARK  566  A    between atoms: _1182  and  _1183
REMARK  567  A    between atoms: _1183  and  _1184
REMARK  568  A    between atoms: _1187  and  _1188
REMARK  569  A    between atoms: _1188  and  _1189
REMARK  570  A    between atoms: _1191  and  _1192
REMARK  571  A    between atoms: _1192  and  _1193
REMARK  572  A    between atoms: _1195  and  _1196
REMARK  573  A    between atoms: _1196  and  _1197
REMARK  574  A    between atoms: _1196  and  _1199
REMARK  575  A    between atoms: _1201  and  _1202
REMARK  576  A    between atoms: _1202  and  _1203
REMARK  577  A    between atoms: _1202  and  _1205
REMARK  578  A    between atoms: _1205  and  _1206
REMARK  579  A    between atoms: _1212  and  _1213
REMARK  580  A    between atoms: _1213  and  _1214
REMARK  581  A    between atoms: _1213  and  _1216
REMARK  582  A    between atoms: _1219  and  _1220
REMARK  583  A    between atoms: _1220  and  _1221
REMARK  584  A    between atoms: _1220  and  _1223
REMARK  585  A    between atoms: _1226  and  _1227
REMARK  586  A    between atoms: _1227  and  _1228
REMARK  587  A    between atoms: _1227  and  _1230
REMARK  588  A    between atoms: _1230  and  _1231
REMARK  589  A    between atoms: _1231  and  _1232
REMARK  590  A    between atoms: _1232  and  _1233
REMARK  591  A    between atoms: _1237  and  _1238
REMARK  592  A    between atoms: _1238  and  _1239
REMARK  593  A    between atoms: _1238  and  _1241
REMARK  594  A    between atoms: _1244  and  _1245
REMARK  595  A    between atoms: _1245  and  _1246
REMARK  596  A    between atoms: _1245  and  _1248
REMARK  597  A    between atoms: _1248  and  _1249
REMARK  598  A    between atoms: _1252  and  _1253
REMARK  599  A    between atoms: _1253  and  _1254
REMARK  600  A    between atoms: _1253  and  _1256
REMARK  601  A    between atoms: _1259  and  _1260
REMARK  602  A    between atoms: _1260  and  _1261
REMARK  603  A    between atoms: _1263  and  _1264
REMARK  604  A    between atoms: _1264  and  _1265
REMARK  605  A    between atoms: _1264  and  _1267
REMARK  606  A    between atoms: _1267  and  _1268
REMARK  607  A    between atoms: _1268  and  _1269
REMARK  608  A    between atoms: _1273  and  _1274
REMARK  609  A    between atoms: _1279  and  _1280
REMARK  610  A    between atoms: _1280  and  _1285
REMARK  611  A    between atoms: _1285  and  _1286
REMARK  612  A    between atoms: _1286  and  _1287
REMARK  613  A    between atoms: _1287  and  _1289
REMARK  614  A    between atoms: _1292  and  _1293
REMARK  615  A    between atoms: _1293  and  _1294
REMARK  616  A    between atoms: _1296  and  _1297
REMARK  617  A    between atoms: _1297  and  _1298
REMARK  618  A    between atoms: _1297  and  _1300
REMARK  619  A    between atoms: _1300  and  _1301
REMARK  620  A    between atoms: _1301  and  _1302
REMARK  621  A    between atoms: _1302  and  _1303
REMARK  622  A    between atoms: _1307  and  _1308
REMARK  623  A    between atoms: _1308  and  _1309
REMARK  624  A    between atoms: _1311  and  _1312
REMARK  625  A    between atoms: _1312  and  _1313
REMARK  626  A    between atoms: _1312  and  _1315
REMARK  627  A    between atoms: _1318  and  _1319
REMARK  628  A    between atoms: _1319  and  _1320
REMARK  629  A    between atoms: _1319  and  _1322
REMARK  630  A    between atoms: _1322  and  _1323
REMARK  631  A    between atoms: _1323  and  _1324
REMARK  632  A    between atoms: _1324  and  _1325
REMARK  633  A    between atoms: _1327  and  _1328
REMARK  634  A    between atoms: _1328  and  _1329
REMARK  635  A    between atoms: _1328  and  _1331
REMARK  636  A    between atoms: _1334  and  _1335
REMARK  637  A    between atoms: _1335  and  _1336
REMARK  638  A    between atoms: _1335  and  _1338
REMARK  639  A    between atoms: _1338  and  _1339
REMARK  640  A    between atoms: _1342  and  _1343
REMARK  641  A    between atoms: _1343  and  _1344
REMARK  642  A    between atoms: _1343  and  _1346
REMARK  643  A    between atoms: _1346  and  _1347
REMARK  644  A    between atoms: _1350  and  _1351
REMARK  645  A    between atoms: _1351  and  _1352
REMARK  646  A    between atoms: _1351  and  _1354
REMARK  647  A    between atoms: _1354  and  _1355
REMARK  648  A    between atoms: _1360  and  _1361
REMARK  649  A    between atoms: _1361  and  _1362
REMARK  650  A    between atoms: _1361  and  _1364
REMARK  651  A    between atoms: _1364  and  _1365
REMARK  652  A    between atoms: _1368  and  _1369
REMARK  653  A    between atoms: _1369  and  _1370
REMARK  654  A    between atoms: _1369  and  _1372
REMARK  655  A    between atoms: _1372  and  _1373
REMARK  656  A    between atoms: _1373  and  _1374
REMARK  657  A    between atoms: _1374  and  _1375
REMARK  658  A    between atoms: _1377  and  _1378
REMARK  659  A    between atoms: _1378  and  _1379
REMARK  660  A    between atoms: _1378  and  _1381
REMARK  661  A    between atoms: _1381  and  _1382
REMARK  662  A    between atoms: _1382  and  _1383
REMARK  663  A    between atoms: _1386  and  _1387
REMARK  664  A    between atoms: _1387  and  _1388
REMARK  665  A    between atoms: _1387  and  _1390
REMARK  666  A    between atoms: _1390  and  _1391
REMARK  667  A    between atoms: _1394  and  _1395
REMARK  668  A    between atoms: _1395  and  _1396
REMARK  669  A    between atoms: _1395  and  _1398
REMARK  670  A    between atoms: _1398  and  _1399
REMARK  671  A    between atoms: _1399  and  _1400
REMARK  672  A    between atoms: _1403  and  _1404
REMARK  673  A    between atoms: _1404  and  _1405
REMARK  674  A    between atoms: _1404  and  _1407
REMARK  675  A    between atoms: _1410  and  _1411
REMARK  676  A    between atoms: _1411  and  _1412
REMARK  677  A    between atoms: _1411  and  _1414
REMARK  678  A    between atoms: _1414  and  _1415
REMARK  679  A    between atoms: _1415  and  _1416
REMARK  680  A    between atoms: _1419  and  _1420
REMARK  681  A    between atoms: _1420  and  _1421
REMARK  682  A    between atoms: _1420  and  _1423
REMARK  683  A    between atoms: _1423  and  _1424
REMARK  684  A    between atoms: _1431  and  _1432
REMARK  685  A    between atoms: _1432  and  _1433
REMARK  686  A    between atoms: _1432  and  _1435
REMARK  687  A    between atoms: _1435  and  _1436
REMARK  688  A    between atoms: _1439  and  _1440
REMARK  689  A    between atoms: _1440  and  _1441
REMARK  690  A    between atoms: _1440  and  _1443
REMARK  691  A    between atoms: _1443  and  _1444
REMARK  692  A    between atoms: _1444  and  _1445
REMARK  693  A    between atoms: _1448  and  _1449
REMARK  694  A    between atoms: _1449  and  _1450
REMARK  695  A    between atoms: _1449  and  _1452
REMARK  696  A    between atoms: _1452  and  _1453
REMARK  697  A    between atoms: _1453  and  _1454
REMARK  698  A    between atoms: _1457  and  _1458
REMARK  699  A    between atoms: _1458  and  _1459
REMARK  700  A    between atoms: _1458  and  _1461
REMARK  701  A    between atoms: _1461  and  _1462
REMARK  702  A    between atoms: _1462  and  _1463
REMARK  703  A    between atoms: _1463  and  _1464
REMARK  704  A    between atoms: _1468  and  _1469
REMARK  705  A    between atoms: _1469  and  _1470
REMARK  706  A    between atoms: _1469  and  _1472
REMARK  707  A    between atoms: _1472  and  _1473
REMARK  708  A    between atoms: _1473  and  _1474
REMARK  709  A    between atoms: _1474  and  _1475
REMARK  710  A    between atoms: _1479  and  _1480
REMARK  711  A    between atoms: _1480  and  _1481
REMARK  712  A    between atoms: _1480  and  _1483
REMARK  713  A    between atoms: _1483  and  _1484
REMARK  714  A    between atoms: _1487  and  _1488
REMARK  715  A    between atoms: _1488  and  _1489
REMARK  716  A    between atoms: _1488  and  _1491
REMARK  717  A    between atoms: _1491  and  _1492
REMARK  718  A    between atoms: _1492  and  _1493
REMARK  719  A    between atoms: _1493  and  _1494
REMARK  720  A    between atoms: _1496  and  _1497
REMARK  721  A    between atoms: _1497  and  _1498
REMARK  722  A    between atoms: _1497  and  _1500
REMARK  723  A    between atoms: _1500  and  _1501
REMARK  724  A    between atoms: _1501  and  _1502
REMARK  725  A    between atoms: _1505  and  _1506
REMARK  726  A    between atoms: _1506  and  _1507
REMARK  727  A    between atoms: _1506  and  _1509
REMARK  728  A    between atoms: _1509  and  _1510
REMARK  729  A    between atoms: _1513  and  _1514
REMARK  730  A    between atoms: _1514  and  _1515
REMARK  731  A    between atoms: _1514  and  _1517
REMARK  732  A    between atoms: _1520  and  _1521
REMARK  733  A    between atoms: _1521  and  _1522
REMARK  734  A    between atoms: _1521  and  _1524
REMARK  735  A    between atoms: _1524  and  _1525
REMARK  736  A    between atoms: _1525  and  _1526
REMARK  737  A    between atoms: _1526  and  _1527
REMARK  738  A    between atoms: _1529  and  _1530
REMARK  739  A    between atoms: _1530  and  _1531
REMARK  740  A    between atoms: _1530  and  _1533
REMARK  741  A    between atoms: _1533  and  _1534
REMARK  742  A    between atoms: _1534  and  _1535
REMARK  743  A    between atoms: _1535  and  _1536
REMARK  744  A    between atoms: _1538  and  _1539
REMARK  745  A    between atoms: _1539  and  _1540
REMARK  746  A    between atoms: _1539  and  _1542
REMARK  747  A    between atoms: _1542  and  _1543
REMARK  748  A    between atoms: _1548  and  _1549
REMARK  749  A    between atoms: _1549  and  _1550
REMARK  750  A    between atoms: _1549  and  _1552
REMARK  751  A    between atoms: _1554  and  _1555
REMARK  752  A    between atoms: _1555  and  _1556
REMARK  753  A    between atoms: _1555  and  _1558
REMARK  754  A    between atoms: _1558  and  _1559
REMARK  755  A    between atoms: _1559  and  _1560
REMARK  756  A    between atoms: _1563  and  _1564
REMARK  757  A    between atoms: _1564  and  _1565
REMARK  758  A    between atoms: _1564  and  _1567
REMARK  759  A    between atoms: _1567  and  _1568
REMARK  760  A    between atoms: _1574  and  _1575
REMARK  761  A    between atoms: _1575  and  _1576
REMARK  762  A    between atoms: _1575  and  _1578
REMARK  763  A    between atoms: _1578  and  _1579
REMARK  764  A    between atoms: _1582  and  _1583
REMARK  765  A    between atoms: _1583  and  _1584
REMARK  766  A    between atoms: _1586  and  _1587
REMARK  767  A    between atoms: _1587  and  _1588
REMARK  768  A    between atoms: _1587  and  _1590
REMARK  769  A    between atoms: _1590  and  _1591
REMARK  770  A    between atoms: _1599  and  _1600
REMARK  771  A    between atoms: _1605  and  _1606
REMARK  772  A    between atoms: _1606  and  _1607
REMARK  773  A    between atoms: _1606  and  _1609
REMARK  774  A    between atoms: _1609  and  _1610
REMARK  775  A    between atoms: _1613  and  _1614
REMARK  776  A    between atoms: _1614  and  _1615
REMARK  777  A    between atoms: _1614  and  _1617
REMARK  778  A    between atoms: _1620  and  _1621
REMARK  779  A    between atoms: _1621  and  _1622
REMARK  780  A    between atoms: _1621  and  _1624
REMARK  781  A    between atoms: _1624  and  _1625
REMARK  782  A    between atoms: _1628  and  _1629
REMARK  783  A    between atoms: _1629  and  _1630
REMARK  784  A    between atoms: _1629  and  _1632
REMARK  785  A    between atoms: _1632  and  _1633
REMARK  786  A    between atoms: _1639  and  _1640
REMARK  787  A    between atoms: _1640  and  _1641
REMARK  788  A    between atoms: _1640  and  _1643
REMARK  789  A    between atoms: _1646  and  _1647
REMARK  790  A    between atoms: _1647  and  _1648
REMARK  791  A    between atoms: _1647  and  _1650
REMARK  792  A    between atoms: _1650  and  _1651
REMARK  793  A    between atoms: _1651  and  _1652
REMARK  794  A    between atoms: _1655  and  _1656
REMARK  795  A    between atoms: _1656  and  _1657
REMARK  796  A    between atoms: _1656  and  _1659
REMARK  797  A    between atoms: _1659  and  _1660
REMARK  798  A    between atoms: _1660  and  _1661
REMARK                            x       y       z     vdW  Elec       q    Type
REMARK                         _______ _______ _______ _____ _____    ______ ____
ROOT
ATOM      1  C   UNK A  22     -11.904 -12.550  29.434  0.00  0.00    +0.173 C 
ENDROOT
BRANCH   1   3
ATOM      2  C   UNK A  22     -13.071 -11.276  27.661  0.00  0.00    +0.262 C 
ATOM      3  N   UNK A  22     -13.000 -11.718  28.910  0.00  0.00    -0.196 NA
ATOM      4  O   UNK A  22     -12.207 -11.435  26.836  0.00  0.00    -0.271 OA
BRANCH   2   5
ATOM      5  C   UNK A  22     -14.305 -10.485  27.305  0.00  0.00    +0.179 C 
BRANCH   5   8
ATOM      6  C   UNK A  22     -14.900  -8.711  25.756  0.00  0.00    +0.262 C 
ATOM      7  O   UNK A  22     -15.614  -8.169  26.602  0.00  0.00    -0.271 OA
ATOM      8  N   UNK A  22     -14.185  -9.801  26.028  0.00  0.00    -0.196 NA
BRANCH   6   9
ATOM      9  C   UNK A  22     -14.885  -8.195  24.322  0.00  0.00    +0.173 C 
BRANCH   9  11
ATOM     10  C   UNK A  22     -16.176  -9.383  22.585  0.00  0.00    +0.262 C 
ATOM     11  N   UNK A  22     -16.139  -8.600  23.660  0.00  0.00    -0.196 NA
ATOM     12  O   UNK A  22     -15.178  -9.819  22.030  0.00  0.00    -0.271 OA
BRANCH  10  13
ATOM     13  C   UNK A  22     -17.550  -9.687  21.998  0.00  0.00    +0.173 C 
BRANCH  13  16
ATOM     14  C   UNK A  22     -17.587  -8.196  20.052  0.00  0.00    +0.262 C 
ATOM     15  O   UNK A  22     -17.587  -7.198  20.768  0.00  0.00    -0.271 OA
ATOM     16  N   UNK A  22     -17.570  -9.449  20.544  0.00  0.00    -0.196 NA
BRANCH  14  17
ATOM     17  C   UNK A  22     -17.619  -8.015  18.542  0.00  0.00    +0.173 C 
BRANCH  17  20
ATOM     18  C   UNK A  22     -15.937  -9.469  17.539  0.00  0.00    +0.264 C 
ATOM     19  O   UNK A  22     -15.013  -8.715  17.862  0.00  0.00    -0.271 OA
ATOM     20  N   UNK A  22     -17.222  -9.214  17.824  0.00  0.00    -0.196 NA
BRANCH  18  21
ATOM     21  C   UNK A  22     -15.647 -10.750  16.794  0.00  0.00    +0.201 C 
BRANCH  21  24
ATOM     22  C   UNK A  22     -14.090 -11.340  14.997  0.00  0.00    +0.264 C 
ATOM     23  O   UNK A  22     -13.705 -12.352  15.569  0.00  0.00    -0.271 OA
ATOM     24  N   UNK A  22     -14.977 -10.501  15.527  0.00  0.00    -0.194 NA
BRANCH  22  25
ATOM     25  C   UNK A  22     -13.513 -10.977  13.628  0.00  0.00    +0.205 C 
BRANCH  25  27
ATOM     26  C   ASP A  21     -15.204  -9.591  12.444  0.00  0.00    +0.262 C 
ATOM     27  N   UNK A  22     -14.045  -9.719  13.123  0.00  0.00    -0.194 NA
ATOM     28  O   ASP A  21     -15.947 -10.538  12.209  0.00  0.00    -0.271 OA
BRANCH  26  29
ATOM     29  CA  ASP A  21     -15.601  -8.174  12.024  0.00  0.00    +0.184 C 
BRANCH  29  32
ATOM     30  C   LEU A  20     -15.167  -7.076  14.167  0.00  0.00    +0.262 C 
ATOM     31  O   LEU A  20     -15.938  -7.839  14.755  0.00  0.00    -0.271 OA
ATOM     32  N   ASP A  21     -14.920  -7.169  12.852  0.00  0.00    -0.196 NA
BRANCH  30  33
ATOM     33  CA  LEU A  20     -14.382  -6.029  14.974  0.00  0.00    +0.173 C 
BRANCH  33  36
ATOM     34  C   LYS A  19     -12.303  -5.318  13.839  0.00  0.00    +0.262 C 
ATOM     35  O   LYS A  19     -11.653  -6.255  14.300  0.00  0.00    -0.271 OA
ATOM     36  N   LEU A  20     -13.609  -5.121  14.126  0.00  0.00    -0.196 NA
BRANCH  34  37
ATOM     37  CA  LYS A  19     -11.605  -4.293  12.931  0.00  0.00    +0.173 C 
BRANCH  37  39
ATOM     38  C   SER A  18     -13.381  -4.213  11.232  0.00  0.00    +0.264 C 
ATOM     39  N   LYS A  19     -12.591  -3.567  12.119  0.00  0.00    -0.196 NA
ATOM     40  O   SER A  18     -13.299  -5.427  11.035  0.00  0.00    -0.271 OA
BRANCH  38  41
ATOM     41  CA  SER A  18     -14.433  -3.382  10.468  0.00  0.00    +0.205 C 
BRANCH  41  44
ATOM     42  C   PRO A  17     -15.158  -1.845  12.288  0.00  0.00    +0.260 C 
ATOM     43  O   PRO A  17     -15.509  -2.761  13.037  0.00  0.00    -0.272 OA
ATOM     44  N   SER A  18     -14.622  -2.051  11.058  0.00  0.00    -0.194 NA
BRANCH  42  48
ATOM     45  C   ASP A  16     -13.013   0.381  12.209  0.00  0.00    +0.246 C 
ATOM     46  O   ASP A  16     -12.510  -0.592  12.778  0.00  0.00    -0.273 OA
ATOM     47  N   PRO A  17     -14.355   0.563  12.143  0.00  0.00    -0.272 N 
ATOM     48  CA  PRO A  17     -15.273  -0.403  12.785  0.00  0.00    +0.154 C 
ATOM     49  CB  PRO A  17     -16.666   0.182  12.496  0.00  0.00    +0.031 C 
ATOM     50  CG  PRO A  17     -16.422   1.624  12.209  0.00  0.00    +0.024 C 
ATOM     51  CD  PRO A  17     -15.110   1.661  11.501  0.00  0.00    +0.094 C 
BRANCH  45  52
ATOM     52  CA  ASP A  16     -12.098   1.419  11.552  0.00  0.00    +0.183 C 
BRANCH  52  54
ATOM     53  C   THR A  15     -11.634   3.772  12.195  0.00  0.00    +0.264 C 
ATOM     54  N   ASP A  16     -11.777   2.470  12.517  0.00  0.00    -0.196 NA
ATOM     55  O   THR A  15     -11.750   4.195  11.047  0.00  0.00    -0.271 OA
BRANCH  53  56
ATOM     56  CA  THR A  15     -11.302   4.750  13.329  0.00  0.00    +0.203 C 
BRANCH  56  59
ATOM     57  C   LEU A  14     -12.645   4.553  15.396  0.00  0.00    +0.262 C 
ATOM     58  O   LEU A  14     -13.462   5.404  15.035  0.00  0.00    -0.271 OA
ATOM     59  N   THR A  15     -11.583   4.192  14.654  0.00  0.00    -0.194 NA
BRANCH  57  60
ATOM     60  CA  LEU A  14     -12.803   3.903  16.759  0.00  0.00    +0.173 C 
BRANCH  60  62
ATOM     61  C   THR A  13     -12.845   1.554  16.025  0.00  0.00    +0.264 C 
ATOM     62  N   LEU A  14     -12.275   2.523  16.767  0.00  0.00    -0.196 NA
ATOM     63  O   THR A  13     -13.867   1.730  15.351  0.00  0.00    -0.271 OA
BRANCH  61  64
ATOM     64  CA  THR A  13     -12.213   0.170  16.067  0.00  0.00    +0.203 C 
BRANCH  64  66
ATOM     65  C   GLU A  12      -9.813   0.740  15.943  0.00  0.00    +0.262 C 
ATOM     66  N   THR A  13     -10.840   0.160  16.601  0.00  0.00    -0.194 NA
ATOM     67  O   GLU A  12      -9.939   1.351  14.872  0.00  0.00    -0.271 OA
BRANCH  65  68
ATOM     68  CA  GLU A  12      -8.433   0.630  16.579  0.00  0.00    +0.173 C 
BRANCH  68  70
ATOM     69  C   TYR A  11      -9.008   1.791  18.623  0.00  0.00    +0.262 C 
ATOM     70  N   GLU A  12      -8.511   0.695  18.038  0.00  0.00    -0.196 NA
ATOM     71  O   TYR A  11      -9.445   2.749  17.973  0.00  0.00    -0.271 OA
BRANCH  69  72
ATOM     72  CA  TYR A  11      -9.091   1.784  20.155  0.00  0.00    +0.177 C 
BRANCH  72  74
ATOM     73  C   ARG A  10     -10.887   0.165  20.316  0.00  0.00    +0.262 C 
ATOM     74  N   TYR A  11      -9.626   0.513  20.645  0.00  0.00    -0.196 NA
ATOM     75  O   ARG A  10     -11.615   0.851  19.575  0.00  0.00    -0.271 OA
BRANCH  73  76
ATOM     76  CA  ARG A  10     -11.372  -1.179  20.850  0.00  0.00    +0.173 C 
BRANCH  76  78
ATOM     77  C   ILE A   9      -9.848  -2.539  19.561  0.00  0.00    +0.262 C 
ATOM     78  N   ARG A  10     -10.303  -2.186  20.767  0.00  0.00    -0.196 NA
ATOM     79  O   ILE A   9     -10.267  -2.025  18.515  0.00  0.00    -0.271 OA
BRANCH  77  80
ATOM     80  CA  ILE A   9      -8.704  -3.553  19.509  0.00  0.00    +0.173 C 
BRANCH  80  82
ATOM     81  C   LYS A   8      -7.043  -2.196  20.626  0.00  0.00    +0.262 C 
ATOM     82  N   ILE A   9      -7.783  -3.323  20.637  0.00  0.00    -0.196 NA
ATOM     83  O   LYS A   8      -7.075  -1.377  19.705  0.00  0.00    -0.271 OA
BRANCH  81  84
ATOM     84  CA  LYS A   8      -6.096  -1.989  21.798  0.00  0.00    +0.173 C 
BRANCH  84  86
ATOM     85  C   ASP A   7      -7.772  -1.540  23.525  0.00  0.00    +0.262 C 
ATOM     86  N   LYS A   8      -6.724  -2.289  23.084  0.00  0.00    -0.196 NA
ATOM     87  O   ASP A   7      -8.272  -0.607  22.875  0.00  0.00    -0.271 OA
BRANCH  85  88
ATOM     88  CA  ASP A   7      -8.341  -1.885  24.920  0.00  0.00    +0.184 C 
BRANCH  88  90
ATOM     89  C   LEU A   6      -9.003  -4.140  24.317  0.00  0.00    +0.262 C 
ATOM     90  N   ASP A   7      -8.303  -3.343  25.147  0.00  0.00    -0.196 NA
ATOM     91  O   LEU A   6      -9.705  -3.695  23.410  0.00  0.00    -0.271 OA
BRANCH  89  92
ATOM     92  CA  LEU A   6      -8.884  -5.656  24.534  0.00  0.00    +0.173 C 
BRANCH  92  94
ATOM     93  C   ALA A   5      -6.539  -5.852  23.921  0.00  0.00    +0.262 C 
ATOM     94  N   LEU A   6      -7.496  -5.998  24.855  0.00  0.00    -0.196 NA
ATOM     95  O   ALA A   5      -6.773  -5.543  22.747  0.00  0.00    -0.271 OA
BRANCH  93  96
ATOM     96  CA  ALA A   5      -5.111  -6.184  24.365  0.00  0.00    +0.173 C 
ATOM     97  CB  ALA A   5      -4.847  -7.674  24.218  0.00  0.00    +0.033 C 
BRANCH  96  99
ATOM     98  C   ASP A   4      -4.871  -4.461  26.072  0.00  0.00    +0.262 C 
ATOM     99  N   ALA A   5      -4.908  -5.778  25.756  0.00  0.00    -0.196 NA
ATOM    100  O   ASP A   4      -5.014  -3.549  25.236  0.00  0.00    -0.271 OA
BRANCH  98 101
ATOM    101  CA  ASP A   4      -4.637  -4.112  27.545  0.00  0.00    +0.184 C 
BRANCH 101 103
ATOM    102  C   SER A   3      -6.703  -5.092  28.424  0.00  0.00    +0.264 C 
ATOM    103  N   ASP A   4      -5.343  -5.039  28.454  0.00  0.00    -0.196 NA
ATOM    104  O   SER A   3      -7.395  -4.401  27.645  0.00  0.00    -0.271 OA
BRANCH 102 105
ATOM    105  CA  SER A   3      -7.402  -6.087  29.379  0.00  0.00    +0.205 C 
BRANCH 105 107
ATOM    106  C   SER A   2      -6.510  -8.048  28.233  0.00  0.00    +0.264 C 
ATOM    107  N   SER A   3      -6.679  -7.361  29.385  0.00  0.00    -0.194 NA
ATOM    108  O   SER A   2      -6.988  -7.684  27.153  0.00  0.00    -0.271 OA
BRANCH 106 109
ATOM    109  CA  SER A   2      -5.755  -9.362  28.341  0.00  0.00    +0.205 C 
BRANCH 109 111
ATOM    110  C   ASN A   1      -3.590  -8.317  28.709  0.00  0.00    +0.262 C 
ATOM    111  N   SER A   2      -4.544  -9.173  29.150  0.00  0.00    -0.194 NA
ATOM    112  O   ASN A   1      -3.711  -7.644  27.672  0.00  0.00    -0.271 OA
BRANCH 110 113
ATOM    113  CA  ASN A   1      -2.357  -8.165  29.609  0.00  0.00    +0.182 C 
BRANCH 113 116
ATOM    114  C   UNK A   0      -3.975  -7.172  32.919  0.00  0.00    +0.096 C 
ATOM    115  C   UNK A   0      -3.545  -7.138  31.453  0.00  0.00    +0.242 C 
ATOM    116  N   ASN A   1      -2.754  -8.136  31.006  0.00  0.00    -0.197 NA
ATOM    117  O   UNK A   0      -3.943  -6.241  30.727  0.00  0.00    -0.273 OA
ENDBRANCH 113 116
BRANCH 113 118
ATOM    118  CB  ASN A   1      -1.390  -9.315  29.367  0.00  0.00    +0.120 C 
BRANCH 118 119
ATOM    119  CG  ASN A   1      -0.008  -9.031  29.909  0.00  0.00    +0.263 C 
ATOM    120  OD1 ASN A   1       0.261  -7.940  30.423  0.00  0.00    -0.272 OA
ATOM    121  ND2 ASN A   1       0.889  -9.997  29.725  0.00  0.00    -0.088 NA
ENDBRANCH 118 119
ENDBRANCH 113 118
ENDBRANCH 110 113
ENDBRANCH 109 111
BRANCH 109 122
ATOM    122  CB  SER A   2      -6.651 -10.388  29.024  0.00  0.00    +0.213 C 
ATOM    123  OG  SER A   2      -6.099 -11.686  28.856  0.00  0.00    -0.218 OA
ENDBRANCH 109 122
ENDBRANCH 106 109
ENDBRANCH 105 107
BRANCH 105 124
ATOM    124  CB  SER A   3      -7.460  -5.510  30.796  0.00  0.00    +0.213 C 
ATOM    125  OG  SER A   3      -8.123  -4.244  30.816  0.00  0.00    -0.218 OA
ENDBRANCH 105 124
ENDBRANCH 102 105
ENDBRANCH 101 103
BRANCH 101 126
ATOM    126  CB  ASP A   4      -3.130  -4.108  27.822  0.00  0.00    +0.145 C 
BRANCH 126 127
ATOM    127  CG  ASP A   4      -2.754  -3.543  29.177  0.00  0.00    +0.367 C 
ATOM    128  OD2 ASP A   4      -3.647  -2.924  29.850  0.00  0.00    -0.246 OA
ATOM    129  OD1 ASP A   4      -1.586  -3.712  29.583  0.00  0.00    -0.246 OA
ENDBRANCH 126 127
ENDBRANCH 101 126
ENDBRANCH  98 101
ENDBRANCH  96  99
ENDBRANCH  93  96
ENDBRANCH  92  94
BRANCH  92 130
ATOM    130  CB  LEU A   6      -9.809  -6.115  25.662  0.00  0.00    +0.031 C 
BRANCH 130 131
ATOM    131  CG  LEU A   6     -10.073  -7.622  25.686  0.00  0.00    +0.002 C 
ATOM    132  CD2 LEU A   6     -10.468  -8.091  27.088  0.00  0.00    +0.000 C 
ATOM    133  CD1 LEU A   6     -11.126  -8.006  24.659  0.00  0.00    +0.000 C 
ENDBRANCH 130 131
ENDBRANCH  92 130
ENDBRANCH  89  92
ENDBRANCH  88  90
BRANCH  88 134
ATOM    134  CB  ASP A   7      -7.451  -1.166  25.955  0.00  0.00    +0.145 C 
BRANCH 134 135
ATOM    135  CG  ASP A   7      -7.974  -1.131  27.374  0.00  0.00    +0.367 C 
ATOM    136  OD2 ASP A   7      -7.209  -0.701  28.274  0.00  0.00    -0.246 OA
ATOM    137  OD1 ASP A   7      -9.150  -1.530  27.594  0.00  0.00    -0.246 OA
ENDBRANCH 134 135
ENDBRANCH  88 134
ENDBRANCH  85  88
ENDBRANCH  84  86
BRANCH  84 138
ATOM    138  CB  LYS A   8      -4.806  -2.786  21.612  0.00  0.00    +0.031 C 
BRANCH 138 139
ATOM    139  CG  LYS A   8      -3.661  -2.278  22.498  0.00  0.00    +0.004 C 
BRANCH 139 140
ATOM    140  CD  LYS A   8      -2.386  -3.111  22.240  0.00  0.00    +0.021 C 
BRANCH 140 141
ATOM    141  CE  LYS A   8      -1.103  -2.340  22.500  0.00  0.00    +0.109 C 
ATOM    142  NZ  LYS A   8      -0.934  -1.987  23.929  0.00  0.00    -0.131 NA
ENDBRANCH 140 141
ENDBRANCH 139 140
ENDBRANCH 138 139
ENDBRANCH  84 138
ENDBRANCH  81  84
ENDBRANCH  80  82
BRANCH  80 143
ATOM    143  CB  ILE A   9      -9.207  -5.016  19.397  0.00  0.00    +0.029 C 
ATOM    144  CG2 ILE A   9     -10.085  -5.414  20.591  0.00  0.00    +0.002 C 
BRANCH 143 145
ATOM    145  CG1 ILE A   9      -9.965  -5.233  18.068  0.00  0.00    +0.002 C 
ATOM    146  CD1 ILE A   9      -9.085  -5.132  16.794  0.00  0.00    +0.000 C 
ENDBRANCH 143 145
ENDBRANCH  80 143
ENDBRANCH  77  80
ENDBRANCH  76  78
BRANCH  76 147
ATOM    147  CB  ARG A  10     -11.819  -1.003  22.282  0.00  0.00    +0.035 C 
BRANCH 147 148
ATOM    148  CG  ARG A  10     -12.583  -2.189  22.764  0.00  0.00    +0.049 C 
BRANCH 148 149
ATOM    149  CD  ARG A  10     -12.880  -1.991  24.216  0.00  0.00    +0.220 C 
BRANCH 149 150
ATOM    150  NE  ARG A  10     -13.985  -1.056  24.444  0.00  0.00    -0.087 NA
ATOM    151  CZ  ARG A  10     -14.396  -0.720  25.658  0.00  0.00    +0.535 C 
ATOM    152  NH2 ARG A  10     -13.751  -1.168  26.730  0.00  0.00    +0.135 NA
ATOM    153  NH1 ARG A  10     -15.440   0.085  25.811  0.00  0.00    +0.135 NA
ENDBRANCH 149 150
ENDBRANCH 148 149
ENDBRANCH 147 148
ENDBRANCH  76 147
ENDBRANCH  73  76
ENDBRANCH  72  74
BRANCH  72 154
ATOM    154  CB  TYR A  11      -7.726   2.079  20.807  0.00  0.00    +0.057 C 
BRANCH 154 155
ATOM    155  CG  TYR A  11      -7.193   3.432  20.375  0.00  0.00    -0.020 A 
ATOM    156  CD2 TYR A  11      -7.717   4.611  20.902  0.00  0.00    -0.001 A 
ATOM    157  CE2 TYR A  11      -7.265   5.859  20.473  0.00  0.00    +0.042 A 
ATOM    158  CZ  TYR A  11      -6.300   5.935  19.480  0.00  0.00    +0.196 A 
ATOM    159  OH  TYR A  11      -5.842   7.173  19.063  0.00  0.00    -0.287 OA
ATOM    160  CE1 TYR A  11      -5.787   4.776  18.923  0.00  0.00    +0.042 A 
ATOM    161  CD1 TYR A  11      -6.229   3.535  19.377  0.00  0.00    -0.001 A 
ENDBRANCH 154 155
ENDBRANCH  72 154
ENDBRANCH  69  72
ENDBRANCH  68  70
BRANCH  68 162
ATOM    162  CB  GLU A  12      -7.785  -0.669  16.118  0.00  0.00    +0.043 C 
BRANCH 162 163
ATOM    163  CG  GLU A  12      -6.299  -0.707  16.390  0.00  0.00    +0.116 C 
BRANCH 163 164
ATOM    164  CD  GLU A  12      -5.549  -1.749  15.584  0.00  0.00    +0.365 C 
ATOM    165  OE2 GLU A  12      -4.303  -1.665  15.539  0.00  0.00    -0.246 OA
ATOM    166  OE1 GLU A  12      -6.194  -2.681  15.052  0.00  0.00    -0.246 OA
ENDBRANCH 163 164
ENDBRANCH 162 163
ENDBRANCH  68 162
ENDBRANCH  65  68
ENDBRANCH  64  66
BRANCH  64 167
ATOM    167  CB  THR A  13     -13.109  -0.810  16.786  0.00  0.00    +0.181 C 
ATOM    168  OG1 THR A  13     -13.515  -0.290  18.055  0.00  0.00    -0.221 OA
ATOM    169  CG2 THR A  13     -12.484  -2.168  16.892  0.00  0.00    +0.038 C 
ENDBRANCH  64 167
ENDBRANCH  61  64
ENDBRANCH  60  62
BRANCH  60 170
ATOM    170  CB  LEU A  14     -12.112   4.783  17.823  0.00  0.00    +0.031 C 
BRANCH 170 171
ATOM    171  CG  LEU A  14     -12.154   4.317  19.284  0.00  0.00    +0.002 C 
ATOM    172  CD2 LEU A  14     -11.354   5.274  20.171  0.00  0.00    +0.000 C 
ATOM    173  CD1 LEU A  14     -13.582   4.171  19.806  0.00  0.00    +0.000 C 
ENDBRANCH 170 171
ENDBRANCH  60 170
ENDBRANCH  57  60
ENDBRANCH  56  59
BRANCH  56 174
ATOM    174  CB  THR A  15      -9.868   5.278  13.237  0.00  0.00    +0.181 C 
ATOM    175  CG2 THR A  15      -9.648   6.535  14.065  0.00  0.00    +0.038 C 
ATOM    176  OG1 THR A  15      -8.955   4.258  13.628  0.00  0.00    -0.221 OA
ENDBRANCH  56 174
ENDBRANCH  53  56
ENDBRANCH  52  54
BRANCH  52 177
ATOM    177  CB  ASP A  16     -10.809   0.782  10.998  0.00  0.00    +0.145 C 
BRANCH 177 178
ATOM    178  CG  ASP A  16     -11.015  -0.232   9.887  0.00  0.00    +0.367 C 
ATOM    179  OD2 ASP A  16     -12.183  -0.480   9.514  0.00  0.00    -0.246 OA
ATOM    180  OD1 ASP A  16     -10.008  -0.772   9.388  0.00  0.00    -0.246 OA
ENDBRANCH 177 178
ENDBRANCH  52 177
ENDBRANCH  45  52
ENDBRANCH  42  48
ENDBRANCH  41  44
BRANCH  41 181
ATOM    181  CB  SER A  18     -14.092  -3.291   8.983  0.00  0.00    +0.213 C 
ATOM    182  OG  SER A  18     -12.733  -2.980   8.727  0.00  0.00    -0.218 OA
ENDBRANCH  41 181
ENDBRANCH  38  41
ENDBRANCH  37  39
BRANCH  37 183
ATOM    183  CB  LYS A  19     -10.784  -3.318  13.791  0.00  0.00    +0.031 C 
BRANCH 183 184
ATOM    184  CG  LYS A  19      -9.878  -2.367  13.022  0.00  0.00    +0.004 C 
BRANCH 184 185
ATOM    185  CD  LYS A  19      -8.543  -2.962  12.652  0.00  0.00    +0.021 C 
BRANCH 185 186
ATOM    186  CE  LYS A  19      -7.647  -1.918  12.036  0.00  0.00    +0.109 C 
ATOM    187  NZ  LYS A  19      -6.219  -2.311  12.127  0.00  0.00    -0.131 NA
ENDBRANCH 185 186
ENDBRANCH 184 185
ENDBRANCH 183 184
ENDBRANCH  37 183
ENDBRANCH  34  37
ENDBRANCH  33  36
BRANCH  33 188
ATOM    188  CB  LEU A  20     -15.322  -5.268  15.931  0.00  0.00    +0.031 C 
BRANCH 188 189
ATOM    189  CG  LEU A  20     -14.656  -4.498  17.066  0.00  0.00    +0.002 C 
ATOM    190  CD2 LEU A  20     -13.878  -5.420  18.014  0.00  0.00    +0.000 C 
ATOM    191  CD1 LEU A  20     -15.681  -3.644  17.827  0.00  0.00    +0.000 C 
ENDBRANCH 188 189
ENDBRANCH  33 188
ENDBRANCH  30  33
ENDBRANCH  29  32
BRANCH  29 192
ATOM    192  CB  ASP A  21     -15.308  -7.953  10.531  0.00  0.00    +0.145 C 
BRANCH 192 193
ATOM    193  CG  ASP A  21     -16.050  -6.791   9.880  0.00  0.00    +0.367 C 
ATOM    194  OD2 ASP A  21     -16.876  -6.141  10.569  0.00  0.00    -0.246 OA
ATOM    195  OD1 ASP A  21     -15.796  -6.523   8.696  0.00  0.00    -0.246 OA
ENDBRANCH 192 193
ENDBRANCH  29 192
ENDBRANCH  26  29
ENDBRANCH  25  27
BRANCH  25 196
ATOM    196  C   UNK A  22     -11.991 -10.900  13.679  0.00  0.00    +0.213 C 
ATOM    197  O   UNK A  22     -11.591  -9.680  14.289  0.00  0.00    -0.218 OA
ENDBRANCH  25 196
ENDBRANCH  22  25
ENDBRANCH  21  24
ENDBRANCH  18  21
ENDBRANCH  17  20
BRANCH  17 198
ATOM    198  C   UNK A  22     -19.006  -7.518  18.088  0.00  0.00    +0.031 C 
BRANCH 198 199
ATOM    199  C   UNK A  22     -19.026  -7.055  16.631  0.00  0.00    +0.004 C 
BRANCH 199 200
ATOM    200  C   UNK A  22     -20.411  -6.574  16.195  0.00  0.00    +0.021 C 
BRANCH 200 201
ATOM    201  C   UNK A  22     -20.474  -6.351  14.701  0.00  0.00    +0.109 C 
ATOM    202  N   UNK A  22     -21.810  -5.861  14.266  0.00  0.00    -0.131 NA
ENDBRANCH 200 201
ENDBRANCH 199 200
ENDBRANCH 198 199
ENDBRANCH  17 198
ENDBRANCH  14  17
ENDBRANCH  13  16
BRANCH  13 203
ATOM    203  C   UNK A  22     -17.989 -11.116  22.353  0.00  0.00    +0.043 C 
BRANCH 203 204
ATOM    204  C   UNK A  22     -19.340 -11.529  21.771  0.00  0.00    +0.116 C 
BRANCH 204 205
ATOM    205  C   UNK A  22     -20.532 -10.656  22.120  0.00  0.00    +0.365 C 
ATOM    206  O   UNK A  22     -20.764 -10.411  23.327  0.00  0.00    -0.246 OA
ATOM    207  O   UNK A  22     -21.243 -10.225  21.182  0.00  0.00    -0.246 OA
ENDBRANCH 204 205
ENDBRANCH 203 204
ENDBRANCH  13 203
ENDBRANCH  10  13
ENDBRANCH   9  11
BRANCH   9 208
ATOM    208  C   UNK A  22     -14.751  -6.658  24.287  0.00  0.00    +0.031 C 
BRANCH 208 209
ATOM    209  C   UNK A  22     -14.752  -6.072  22.865  0.00  0.00    +0.002 C 
ATOM    210  C   UNK A  22     -15.158  -4.610  22.859  0.00  0.00    +0.000 C 
ATOM    211  C   UNK A  22     -13.441  -6.359  22.141  0.00  0.00    +0.000 C 
ENDBRANCH 208 209
ENDBRANCH   9 208
ENDBRANCH   6   9
ENDBRANCH   5   8
BRANCH   5 212
ATOM    212  C   UNK A  22     -15.527 -11.405  27.311  0.00  0.00    +0.079 C 
BRANCH 212 213
ATOM    213  C   UNK A  22     -15.486 -12.487  26.256  0.00  0.00    +0.082 A 
ATOM    214  C   UNK A  22     -14.612 -13.540  26.070  0.00  0.00    +0.115 A 
ATOM    215  N   UNK A  22     -15.020 -14.215  24.990  0.00  0.00    -0.221 NA
ATOM    216  C   UNK A  22     -16.099 -13.622  24.505  0.00  0.00    +0.199 A 
ATOM    217  N   UNK A  22     -16.373 -12.567  25.267  0.00  0.00    -0.227 NA
ENDBRANCH 212 213
ENDBRANCH   5 212
ENDBRANCH   2   5
ENDBRANCH   1   3
BRANCH   1 218
ATOM    218  C   UNK A  22     -12.565 -13.745  30.106  0.00  0.00    +0.262 C 
ATOM    219  O   UNK A  22     -13.429 -13.562  30.969  0.00  0.00    -0.271 OA
ATOM    220  N   UNK A  22     -12.159 -14.951  29.712  0.00  0.00    -0.196 NA
BRANCH 220 221
ATOM    221  C   UNK A  22     -12.678 -16.174  30.306  0.00  0.00    +0.182 C 
BRANCH 221 222
ATOM    222  C   UNK A  22     -11.529 -16.881  31.024  0.00  0.00    +0.262 C 
ATOM    223  N   UNK A  22     -11.839 -17.489  32.183  0.00  0.00    -0.196 NA
ATOM    224  O   UNK A  22     -10.422 -16.975  30.465  0.00  0.00    -0.271 OA
BRANCH 223 225
ATOM    225  C   UNK A  22     -10.884 -18.269  32.960  0.00  0.00    +0.173 C 
BRANCH 225 226
ATOM    226  C   UNK A  22     -11.434 -19.684  32.990  0.00  0.00    +0.262 C 
ATOM    227  O   UNK A  22     -12.553 -19.899  33.500  0.00  0.00    -0.271 OA
ATOM    228  N   UNK A  22     -10.661 -20.629  32.432  0.00  0.00    -0.196 NA
BRANCH 228 229
ATOM    229  C   UNK A  22     -11.142 -21.987  32.259  0.00  0.00    +0.171 C 
BRANCH 229 230
ATOM    230  C   UNK A  22     -10.197 -22.978  32.932  0.00  0.00    +0.246 C 
ATOM    231  N   UNK A  22     -10.542 -23.397  34.153  0.00  0.00    -0.272 N 
ATOM    232  C   UNK A  22     -11.752 -23.034  34.931  0.00  0.00    +0.094 C 
ATOM    233  C   UNK A  22     -11.540 -23.725  36.279  0.00  0.00    +0.024 C 
ATOM    234  C   UNK A  22     -10.134 -24.289  36.303  0.00  0.00    +0.031 C 
ATOM    235  C   UNK A  22      -9.729 -24.423  34.827  0.00  0.00    +0.154 C 
ATOM    236  O   UNK A  22      -9.166 -23.354  32.359  0.00  0.00    -0.273 OA
BRANCH 235 237
ATOM    237  C   UNK A  22     -10.100 -25.814  34.299  0.00  0.00    +0.260 C 
ATOM    238  N   UNK A  22      -9.119 -26.725  34.248  0.00  0.00    -0.196 NA
ATOM    239  O   UNK A  22     -11.265 -26.060  33.949  0.00  0.00    -0.272 OA
BRANCH 238 240
ATOM    240  C   UNK A  22      -9.375 -28.097  33.831  0.00  0.00    +0.182 C 
BRANCH 240 241
ATOM    241  C   UNK A  22      -8.564 -28.980  34.760  0.00  0.00    +0.262 C 
ATOM    242  N   UNK A  22      -9.230 -29.570  35.768  0.00  0.00    -0.196 NA
ATOM    243  O   UNK A  22      -7.339 -29.074  34.620  0.00  0.00    -0.271 OA
BRANCH 242 244
ATOM    244  C   UNK A  22      -8.509 -30.372  36.760  0.00  0.00    +0.173 C 
BRANCH 244 245
ATOM    245  C   UNK A  22      -7.951 -31.684  36.210  0.00  0.00    +0.262 C 
ATOM    246  O   UNK A  22      -6.930 -32.152  36.706  0.00  0.00    -0.271 OA
ATOM    247  N   UNK A  22      -8.581 -32.244  35.169  0.00  0.00    -0.196 NA
BRANCH 247 248
ATOM    248  C   UNK A  22      -8.121 -33.490  34.540  0.00  0.00    +0.173 C 
BRANCH 248 249
ATOM    249  C   UNK A  22      -6.789 -33.279  33.793  0.00  0.00    +0.262 C 
ATOM    250  O   UNK A  22      -5.886 -34.123  33.890  0.00  0.00    -0.271 OA
ATOM    251  N   UNK A  22      -6.657 -32.140  33.082  0.00  0.00    -0.196 NA
BRANCH 251 252
ATOM    252  C   UNK A  22      -5.456 -31.816  32.302  0.00  0.00    +0.184 C 
BRANCH 252 253
ATOM    253  C   UNK A  22      -4.456 -31.026  33.127  0.00  0.00    +0.262 C 
ATOM    254  N   UNK A  22      -4.909 -30.535  34.306  0.00  0.00    -0.196 NA
ATOM    255  O   UNK A  22      -3.311 -30.811  32.679  0.00  0.00    -0.271 OA
BRANCH 254 256
ATOM    256  C   UNK A  22      -4.112 -29.705  35.207  0.00  0.00    +0.173 C 
BRANCH 256 257
ATOM    257  C   UNK A  22      -3.695 -28.441  34.460  0.00  0.00    +0.262 C 
ATOM    258  O   UNK A  22      -2.514 -28.048  34.472  0.00  0.00    -0.271 OA
ATOM    259  N   UNK A  22      -4.678 -27.801  33.810  0.00  0.00    -0.194 NA
BRANCH 259 260
ATOM    260  C   UNK A  22      -4.415 -26.570  33.077  0.00  0.00    +0.203 C 
BRANCH 260 261
ATOM    261  C   UNK A  22      -4.571 -26.747  31.559  0.00  0.00    +0.181 C 
ATOM    262  O   UNK A  22      -5.891 -27.218  31.230  0.00  0.00    -0.221 OA
ATOM    263  C   UNK A  22      -3.482 -27.660  30.950  0.00  0.00    +0.038 C 
ENDBRANCH 260 261
BRANCH 260 264
ATOM    264  C   UNK A  22      -5.352 -25.476  33.491  0.00  0.00    +0.264 C 
ATOM    265  O   UNK A  22      -6.527 -25.731  33.802  0.00  0.00    -0.271 OA
ATOM    266  N   UNK A  22      -4.833 -24.245  33.477  0.00  0.00    -0.196 NA
BRANCH 266 267
ATOM    267  C   UNK A  22      -5.668 -23.066  33.667  0.00  0.00    +0.173 C 
BRANCH 267 268
ATOM    268  C   UNK A  22      -5.510 -22.256  32.392  0.00  0.00    +0.262 C 
ATOM    269  O   UNK A  22      -4.375 -21.947  31.998  0.00  0.00    -0.271 OA
ATOM    270  N   UNK A  22      -6.635 -22.042  31.665  0.00  0.00    -0.194 NA
BRANCH 270 271
ATOM    271  C   UNK A  22      -6.561 -21.322  30.401  0.00  0.00    +0.203 C 
BRANCH 271 272
ATOM    272  C   UNK A  22      -7.284 -22.141  29.309  0.00  0.00    +0.181 C 
ATOM    273  O   UNK A  22      -6.624 -23.403  29.148  0.00  0.00    -0.221 OA
ATOM    274  C   UNK A  22      -7.311 -21.422  27.961  0.00  0.00    +0.038 C 
ENDBRANCH 271 272
BRANCH 271 275
ATOM    275  C   UNK A  22      -7.205 -19.953  30.559  0.00  0.00    +0.264 C 
ATOM    276  O   UNK A  22      -8.286 -19.861  31.157  0.00  0.00    -0.271 OA
ATOM    277  N   UNK A  22      -6.522 -18.893  30.067  0.00  0.00    -0.196 NA
BRANCH 277 278
ATOM    278  C   UNK A  22      -7.070 -17.549  30.115  0.00  0.00    +0.173 C 
BRANCH 278 279
ATOM    279  C   UNK A  22      -7.325 -17.169  28.665  0.00  0.00    +0.262 C 
ATOM    280  N   UNK A  22      -8.593 -16.871  28.314  0.00  0.00    -0.196 NA
ATOM    281  O   UNK A  22      -6.370 -17.133  27.876  0.00  0.00    -0.271 OA
BRANCH 280 282
ATOM    282  C   UNK A  22      -8.942 -16.538  26.938  0.00  0.00    +0.173 C 
BRANCH 282 283
ATOM    283  C   UNK A  22     -10.045 -17.466  26.360  0.00  0.00    +0.029 C 
ATOM    284  C   UNK A  22      -9.731 -18.946  26.570  0.00  0.00    +0.002 C 
ATOM    285  C   UNK A  22     -10.301 -17.165  24.883  0.00  0.00    +0.002 C 
ENDBRANCH 282 283
BRANCH 282 286
ATOM    286  C   UNK A  22      -9.430 -15.115  26.881  0.00  0.00    +0.262 C 
ATOM    287  O   UNK A  22     -10.295 -14.750  27.672  0.00  0.00    -0.271 OA
ATOM    288  N   UNK A  22      -8.947 -14.337  25.908  0.00  0.00    -0.196 NA
BRANCH 288 289
ATOM    289  C   UNK A  22      -9.497 -13.008  25.694  0.00  0.00    +0.184 C 
BRANCH 289 290
ATOM    290  C   UNK A  22      -9.738 -12.802  24.205  0.00  0.00    +0.262 C 
ATOM    291  N   UNK A  22     -10.565 -11.803  23.870  0.00  0.00    -0.194 NA
ATOM    292  O   UNK A  22      -9.166 -13.527  23.385  0.00  0.00    -0.271 OA
BRANCH 291 293
ATOM    293  C   UNK A  22     -10.842 -11.477  22.485  0.00  0.00    +0.203 C 
BRANCH 293 294
ATOM    294  C   UNK A  22     -10.207 -10.125  22.136  0.00  0.00    +0.264 C 
ATOM    295  N   UNK A  22      -8.994  -9.922  22.634  0.00  0.00    -0.194 NA
ATOM    296  O   UNK A  22     -10.782  -9.304  21.403  0.00  0.00    -0.271 OA
BRANCH 295 297
ATOM    297  C   UNK A  22      -8.273  -8.697  22.336  0.00  0.00    +0.201 C 
BRANCH 297 298
ATOM    298  C   UNK A  22      -7.713  -8.675  20.938  0.00  0.00    +0.264 C 
ATOM    299  N   UNK A  22      -6.786  -7.741  20.723  0.00  0.00    -0.196 NA
ATOM    300  O   UNK A  22      -8.135  -9.442  20.045  0.00  0.00    -0.271 OA
BRANCH 299 301
ATOM    301  C   UNK A  22      -6.239  -7.525  19.380  0.00  0.00    +0.173 C 
BRANCH 301 302
ATOM    302  C   UNK A  22      -5.444  -8.718  18.843  0.00  0.00    +0.262 C 
ATOM    303  N   UNK A  22      -4.902  -9.543  19.740  0.00  0.00    -0.194 NA
ATOM    304  O   UNK A  22      -5.297  -8.842  17.623  0.00  0.00    -0.271 OA
BRANCH 303 305
ATOM    305  C   UNK A  22      -4.105 -10.677  19.303  0.00  0.00    +0.201 C 
BRANCH 305 306
ATOM    306  C   UNK A  22      -2.718 -10.265  18.846  0.00  0.00    +0.264 C 
ATOM    307  O   UNK A  22      -2.416  -9.069  18.692  0.00  0.00    -0.271 OA
ATOM    308  N   UNK A  22      -1.845 -11.271  18.681  0.00  0.00    -0.196 NA
BRANCH 308 309
ATOM    309  C   UNK A  22      -0.459 -11.011  18.305  0.00  0.00    +0.174 C 
BRANCH 309 310
ATOM    310  C   UNK A  22      -0.149 -11.635  16.956  0.00  0.00    +0.262 C 
ATOM    311  O   UNK A  22      -0.616 -12.733  16.648  0.00  0.00    -0.271 OA
ATOM    312  N   UNK A  22       0.674 -10.935  16.158  0.00  0.00    -0.194 NA
BRANCH 312 313
ATOM    313  C   UNK A  22       1.126 -11.502  14.894  0.00  0.00    +0.203 C 
BRANCH 313 314
ATOM    314  C   UNK A  22       1.621 -10.387  13.955  0.00  0.00    +0.181 C 
ATOM    315  O   UNK A  22       2.756  -9.761  14.561  0.00  0.00    -0.221 OA
ATOM    316  C   UNK A  22       0.533  -9.348  13.654  0.00  0.00    +0.038 C 
ENDBRANCH 313 314
BRANCH 313 317
ATOM    317  C   UNK A  22       2.297 -12.446  15.219  0.00  0.00    +0.264 C 
ATOM    318  O   UNK A  22       2.803 -12.494  16.356  0.00  0.00    -0.271 OA
ATOM    319  N   UNK A  22       2.745 -13.192  14.193  0.00  0.00    -0.196 NA
BRANCH 319 320
ATOM    320  C   UNK A  22       3.881 -14.095  14.412  0.00  0.00    +0.173 C 
BRANCH 320 321
ATOM    321  C   UNK A  22       5.093 -13.270  14.875  0.00  0.00    +0.262 C 
ATOM    322  O   UNK A  22       5.816 -13.677  15.785  0.00  0.00    -0.271 OA
ATOM    323  N   UNK A  22       5.303 -12.103  14.235  0.00  0.00    -0.196 NA
BRANCH 323 324
ATOM    324  C   UNK A  22       6.435 -11.243  14.600  0.00  0.00    +0.173 C 
ATOM    325  C   UNK A  22       6.513 -10.050  13.660  0.00  0.00    +0.033 C 
BRANCH 324 326
ATOM    326  C   UNK A  22       6.343 -10.774  16.053  0.00  0.00    +0.262 C 
ATOM    327  O   UNK A  22       7.366 -10.739  16.760  0.00  0.00    -0.271 OA
ATOM    328  N   UNK A  22       5.117 -10.452  16.530  0.00  0.00    -0.196 NA
BRANCH 328 329
ATOM    329  C   UNK A  22       4.950 -10.040  17.927  0.00  0.00    +0.184 C 
BRANCH 329 330
ATOM    330  C   UNK A  22       5.293 -11.197  18.887  0.00  0.00    +0.262 C 
ATOM    331  O   UNK A  22       5.946 -10.987  19.921  0.00  0.00    -0.271 OA
ATOM    332  N   UNK A  22       4.872 -12.443  18.539  0.00  0.00    -0.196 NA
BRANCH 332 333
ATOM    333  C   UNK A  22       5.207 -13.577  19.406  0.00  0.00    +0.173 C 
BRANCH 333 334
ATOM    334  C   UNK A  22       6.711 -13.721  19.526  0.00  0.00    +0.262 C 
ATOM    335  O   UNK A  22       7.236 -13.921  20.628  0.00  0.00    -0.271 OA
ATOM    336  N   UNK A  22       7.411 -13.684  18.362  0.00  0.00    -0.196 NA
BRANCH 336 337
ATOM    337  C   UNK A  22       8.866 -13.842  18.352  0.00  0.00    +0.173 C 
BRANCH 337 338
ATOM    338  C   UNK A  22       9.553 -12.727  19.148  0.00  0.00    +0.262 C 
ATOM    339  O   UNK A  22      10.513 -12.987  19.882  0.00  0.00    -0.271 OA
ATOM    340  N   UNK A  22       9.028 -11.491  19.016  0.00  0.00    -0.196 NA
BRANCH 340 341
ATOM    341  C   UNK A  22       9.551 -10.322  19.735  0.00  0.00    +0.182 C 
BRANCH 341 342
ATOM    342  C   UNK A  22       9.036 -10.302  21.186  0.00  0.00    +0.262 C 
ATOM    343  N   UNK A  22       9.238 -11.428  21.892  0.00  0.00    -0.196 NA
ATOM    344  O   UNK A  22       8.484  -9.292  21.678  0.00  0.00    -0.271 OA
BRANCH 343 345
ATOM    345  C   UNK A  22       8.937 -11.559  23.307  0.00  0.00    +0.182 C 
BRANCH 345 346
ATOM    346  C   UNK A  22       7.514 -11.197  23.649  0.00  0.00    +0.262 C 
ATOM    347  O   UNK A  22       7.252 -10.463  24.612  0.00  0.00    -0.271 OA
ATOM    348  N   UNK A  22       6.575 -11.736  22.856  0.00  0.00    -0.202 NA
ATOM    349  C   UNK A  22       5.143 -11.536  23.090  0.00  0.00    +0.139 C 
ENDBRANCH 345 346
BRANCH 345 350
ATOM    350  C   UNK A  22       9.947 -10.777  24.152  0.00  0.00    +0.120 C 
BRANCH 350 351
ATOM    351  C   UNK A  22      11.339 -11.294  23.894  0.00  0.00    +0.263 C 
ATOM    352  O   UNK A  22      11.617 -12.488  24.095  0.00  0.00    -0.272 OA
ATOM    353  N   UNK A  22      12.235 -10.416  23.435  0.00  0.00    -0.088 NA
ENDBRANCH 350 351
ENDBRANCH 345 350
ENDBRANCH 343 345
ENDBRANCH 341 342
BRANCH 341 354
ATOM    354  C   UNK A  22       9.187  -9.024  18.996  0.00  0.00    +0.120 C 
BRANCH 354 355
ATOM    355  C   UNK A  22      10.050  -8.778  17.799  0.00  0.00    +0.263 C 
ATOM    356  O   UNK A  22      11.279  -8.871  17.860  0.00  0.00    -0.272 OA
ATOM    357  N   UNK A  22       9.420  -8.406  16.697  0.00  0.00    -0.088 NA
ENDBRANCH 354 355
ENDBRANCH 341 354
ENDBRANCH 340 341
ENDBRANCH 337 338
BRANCH 337 358
ATOM    358  C   UNK A  22       9.385 -13.971  16.908  0.00  0.00    +0.029 C 
ATOM    359  C   UNK A  22      10.940 -13.863  16.850  0.00  0.00    +0.002 C 
BRANCH 358 360
ATOM    360  C   UNK A  22       8.879 -15.304  16.299  0.00  0.00    +0.002 C 
ATOM    361  C   UNK A  22       8.923 -15.365  14.740  0.00  0.00    +0.000 C 
ENDBRANCH 358 360
ENDBRANCH 337 358
ENDBRANCH 336 337
ENDBRANCH 333 334
BRANCH 333 362
ATOM    362  C   UNK A  22       4.664 -14.897  18.816  0.00  0.00    +0.031 C 
BRANCH 362 363
ATOM    363  C   UNK A  22       3.154 -15.071  18.941  0.00  0.00    +0.002 C 
ATOM    364  C   UNK A  22       2.692 -15.153  20.407  0.00  0.00    +0.000 C 
ATOM    365  C   UNK A  22       2.691 -16.362  18.191  0.00  0.00    +0.000 C 
ENDBRANCH 362 363
ENDBRANCH 333 362
ENDBRANCH 332 333
ENDBRANCH 329 330
BRANCH 329 366
ATOM    366  C   UNK A  22       3.500  -9.600  18.202  0.00  0.00    +0.145 C 
BRANCH 366 367
ATOM    367  C   UNK A  22       3.053  -8.363  17.452  0.00  0.00    +0.367 C 
ATOM    368  O   UNK A  22       3.865  -7.421  17.320  0.00  0.00    -0.246 OA
ATOM    369  O   UNK A  22       1.866  -8.316  17.023  0.00  0.00    -0.246 OA
ENDBRANCH 366 367
ENDBRANCH 329 366
ENDBRANCH 328 329
ENDBRANCH 324 326
ENDBRANCH 323 324
ENDBRANCH 320 321
BRANCH 320 370
ATOM    370  C   UNK A  22       4.223 -14.827  13.105  0.00  0.00    +0.031 C 
BRANCH 370 371
ATOM    371  C   UNK A  22       5.240 -15.941  13.306  0.00  0.00    +0.004 C 
BRANCH 371 372
ATOM    372  C   UNK A  22       5.662 -16.533  11.958  0.00  0.00    +0.021 C 
BRANCH 372 373
ATOM    373  C   UNK A  22       6.657 -17.652  12.138  0.00  0.00    +0.109 C 
ATOM    374  N   UNK A  22       7.178 -18.097  10.807  0.00  0.00    -0.131 NA
ENDBRANCH 372 373
ENDBRANCH 371 372
ENDBRANCH 370 371
ENDBRANCH 320 370
ENDBRANCH 319 320
ENDBRANCH 313 317
ENDBRANCH 312 313
ENDBRANCH 309 310
BRANCH 309 375
ATOM    375  C   UNK A  22       0.502 -11.581  19.385  0.00  0.00    +0.043 C 
BRANCH 375 376
ATOM    376  C   UNK A  22       0.505 -10.772  20.670  0.00  0.00    +0.060 C 
BRANCH 376 377
ATOM    377  S   UNK A  22       1.554 -11.484  21.952  0.00  0.00    -0.139 S 
ATOM    378  C   UNK A  22       0.448 -12.846  22.525  0.00  0.00    +0.069 C 
ENDBRANCH 376 377
ENDBRANCH 375 376
ENDBRANCH 309 375
ENDBRANCH 308 309
ENDBRANCH 305 306
ENDBRANCH 303 305
ENDBRANCH 301 302
BRANCH 301 379
ATOM    379  C   UNK A  22      -5.418  -6.208  19.356  0.00  0.00    +0.029 C 
ATOM    380  C   UNK A  22      -4.153  -6.321  20.221  0.00  0.00    +0.002 C 
BRANCH 379 381
ATOM    381  C   UNK A  22      -5.126  -5.758  17.926  0.00  0.00    +0.002 C 
ATOM    382  C   UNK A  22      -4.689  -4.292  17.815  0.00  0.00    +0.000 C 
ENDBRANCH 379 381
ENDBRANCH 301 379
ENDBRANCH 299 301
ENDBRANCH 297 298
ENDBRANCH 295 297
ENDBRANCH 293 294
BRANCH 293 383
ATOM    383  C   UNK A  22     -12.353 -11.539  22.244  0.00  0.00    +0.181 C 
ATOM    384  O   UNK A  22     -12.994 -10.720  23.220  0.00  0.00    -0.221 OA
ATOM    385  C   UNK A  22     -12.905 -12.986  22.300  0.00  0.00    +0.038 C 
ENDBRANCH 293 383
ENDBRANCH 291 293
ENDBRANCH 289 290
BRANCH 289 386
ATOM    386  C   UNK A  22      -8.578 -11.910  26.279  0.00  0.00    +0.145 C 
BRANCH 386 387
ATOM    387  C   UNK A  22      -7.249 -11.764  25.545  0.00  0.00    +0.367 C 
ATOM    388  O   UNK A  22      -6.173 -12.025  26.182  0.00  0.00    -0.246 OA
ATOM    389  O   UNK A  22      -7.279 -11.400  24.347  0.00  0.00    -0.246 OA
ENDBRANCH 386 387
ENDBRANCH 289 386
ENDBRANCH 288 289
ENDBRANCH 282 286
ENDBRANCH 280 282
ENDBRANCH 278 279
BRANCH 278 390
ATOM    390  C   UNK A  22      -6.124 -16.555  30.835  0.00  0.00    +0.029 C 
ATOM    391  C   UNK A  22      -6.707 -15.133  30.812  0.00  0.00    +0.002 C 
BRANCH 390 392
ATOM    392  C   UNK A  22      -5.856 -16.990  32.298  0.00  0.00    +0.002 C 
ATOM    393  C   UNK A  22      -4.582 -17.677  32.525  0.00  0.00    +0.000 C 
ENDBRANCH 390 392
ENDBRANCH 278 390
ENDBRANCH 277 278
ENDBRANCH 271 275
ENDBRANCH 270 271
ENDBRANCH 267 268
BRANCH 267 394
ATOM    394  C   UNK A  22      -5.241 -22.219  34.883  0.00  0.00    +0.031 C 
BRANCH 394 395
ATOM    395  C   UNK A  22      -6.036 -20.896  35.060  0.00  0.00    +0.002 C 
ATOM    396  C   UNK A  22      -5.463 -20.135  36.253  0.00  0.00    +0.000 C 
ATOM    397  C   UNK A  22      -7.534 -21.167  35.322  0.00  0.00    +0.000 C 
ENDBRANCH 394 395
ENDBRANCH 267 394
ENDBRANCH 266 267
ENDBRANCH 260 264
ENDBRANCH 259 260
ENDBRANCH 256 257
BRANCH 256 398
ATOM    398  C   UNK A  22      -2.900 -30.451  35.792  0.00  0.00    +0.035 C 
BRANCH 398 399
ATOM    399  C   UNK A  22      -2.463 -29.809  37.091  0.00  0.00    +0.049 C 
BRANCH 399 400
ATOM    400  C   UNK A  22      -1.002 -30.021  37.370  0.00  0.00    +0.220 C 
BRANCH 400 401
ATOM    401  N   UNK A  22      -0.705 -31.421  37.616  0.00  0.00    -0.087 NA
ATOM    402  C   UNK A  22       0.495 -31.972  37.465  0.00  0.00    +0.535 C 
ATOM    403  N   UNK A  22       0.673 -33.260  37.711  0.00  0.00    +0.135 NA
ATOM    404  N   UNK A  22       1.531 -31.234  37.079  0.00  0.00    +0.135 NA
ENDBRANCH 400 401
ENDBRANCH 399 400
ENDBRANCH 398 399
ENDBRANCH 256 398
ENDBRANCH 254 256
ENDBRANCH 252 253
BRANCH 252 405
ATOM    405  C   UNK A  22      -5.828 -30.984  31.065  0.00  0.00    +0.145 C 
BRANCH 405 406
ATOM    406  C   UNK A  22      -6.670 -31.697  30.034  0.00  0.00    +0.367 C 
ATOM    407  O   UNK A  22      -6.820 -32.937  30.141  0.00  0.00    -0.246 OA
ATOM    408  O   UNK A  22      -7.151 -31.021  29.094  0.00  0.00    -0.246 OA
ENDBRANCH 405 406
ENDBRANCH 252 405
ENDBRANCH 251 252
ENDBRANCH 248 249
BRANCH 248 409
ATOM    409  C   UNK A  22      -9.196 -34.019  33.573  0.00  0.00    +0.041 C 
BRANCH 409 410
ATOM    410  C   UNK A  22      -9.049 -35.501  33.215  0.00  0.00    +0.091 C 
BRANCH 410 411
ATOM    411  C   UNK A  22      -9.256 -36.421  34.400  0.00  0.00    +0.261 C 
ATOM    412  O   UNK A  22     -10.379 -36.608  34.889  0.00  0.00    -0.272 OA
ATOM    413  N   UNK A  22      -8.172 -37.016  34.888  0.00  0.00    -0.088 NA
ENDBRANCH 410 411
ENDBRANCH 409 410
ENDBRANCH 248 409
ENDBRANCH 247 248
ENDBRANCH 244 245
BRANCH 244 414
ATOM    414  C   UNK A  22      -9.367 -30.622  38.008  0.00  0.00    +0.031 C 
BRANCH 414 415
ATOM    415  C   UNK A  22      -9.494 -29.382  38.888  0.00  0.00    +0.004 C 
BRANCH 415 416
ATOM    416  C   UNK A  22     -10.379 -29.635  40.109  0.00  0.00    +0.021 C 
BRANCH 416 417
ATOM    417  C   UNK A  22     -10.688 -28.341  40.827  0.00  0.00    +0.109 C 
ATOM    418  N   UNK A  22     -11.737 -28.516  41.867  0.00  0.00    -0.131 NA
ENDBRANCH 416 417
ENDBRANCH 415 416
ENDBRANCH 414 415
ENDBRANCH 244 414
ENDBRANCH 242 244
ENDBRANCH 240 241
BRANCH 240 419
ATOM    419  C   UNK A  22      -9.014 -28.311  32.372  0.00  0.00    +0.120 C 
BRANCH 419 420
ATOM    420  C   UNK A  22      -9.410 -29.683  31.889  0.00  0.00    +0.263 C 
ATOM    421  O   UNK A  22      -9.203 -30.693  32.573  0.00  0.00    -0.272 OA
ATOM    422  N   UNK A  22     -10.103 -29.725  30.770  0.00  0.00    -0.088 NA
ENDBRANCH 419 420
ENDBRANCH 240 419
ENDBRANCH 238 240
ENDBRANCH 235 237
ENDBRANCH 229 230
BRANCH 229 423
ATOM    423  C   UNK A  22     -11.285 -22.284  30.747  0.00  0.00    +0.029 C 
ATOM    424  C   UNK A  22     -11.988 -23.644  30.553  0.00  0.00    +0.002 C 
BRANCH 423 425
ATOM    425  C   UNK A  22     -12.036 -21.133  29.999  0.00  0.00    +0.002 C 
ATOM    426  C   UNK A  22     -12.140 -21.320  28.451  0.00  0.00    +0.000 C 
ENDBRANCH 423 425
ENDBRANCH 229 423
ENDBRANCH 228 229
ENDBRANCH 225 226
BRANCH 225 427
ATOM    427  C   UNK A  22     -10.755 -17.728  34.402  0.00  0.00    +0.031 C 
BRANCH 427 428
ATOM    428  C   UNK A  22     -10.493 -16.228  34.514  0.00  0.00    +0.002 C 
ATOM    429  C   UNK A  22     -10.393 -15.815  35.995  0.00  0.00    +0.000 C 
ATOM    430  C   UNK A  22      -9.207 -15.814  33.791  0.00  0.00    +0.000 C 
ENDBRANCH 427 428
ENDBRANCH 225 427
ENDBRANCH 223 225
ENDBRANCH 221 222
BRANCH 221 431
ATOM    431  C   UNK A  22     -13.234 -17.094  29.213  0.00  0.00    +0.120 C 
BRANCH 431 432
ATOM    432  C   UNK A  22     -14.453 -16.530  28.515  0.00  0.00    +0.263 C 
ATOM    433  N   UNK A  22     -15.222 -15.716  29.207  0.00  0.00    -0.088 NA
ATOM    434  O   UNK A  22     -14.741 -16.897  27.360  0.00  0.00    -0.272 OA
ENDBRANCH 431 432
ENDBRANCH 221 431
ENDBRANCH 220 221
ENDBRANCH   1 218
BRANCH   1 435
ATOM    435  C   UNK A  22     -11.070 -11.758  30.469  0.00  0.00    +0.029 C 
ATOM    436  C   UNK A  22      -9.952 -12.633  31.086  0.00  0.00    +0.002 C 
BRANCH 435 437
ATOM    437  C   UNK A  22     -10.500 -10.495  29.825  0.00  0.00    +0.002 C 
ATOM    438  C   UNK A  22      -9.883  -9.473  30.850  0.00  0.00    +0.000 C 
ENDBRANCH 435 437
ENDBRANCH   1 435
TORSDOF 215
REMARK  Name = /Users/mlugowska/PhD/ML_residence_time_prediction/protein_files/5NYI_protein.pdb
REMARK  798 active torsions:
REMARK  status: ('A' for Active; 'I' for Inactive)
REMARK    1  A    between atoms: _2  and  _3
REMARK    2  A    between atoms: _2  and  _5
REMARK    3  A    between atoms: _5  and  _6
REMARK    4  A    between atoms: _6  and  _7
REMARK    5  A    between atoms: _10  and  _11
REMARK    6  A    between atoms: _11  and  _12
REMARK    7  A    between atoms: _11  and  _14
REMARK    8  A    between atoms: _17  and  _18
REMARK    9  A    between atoms: _18  and  _19
REMARK   10  A    between atoms: _18  and  _21
REMARK   11  A    between atoms: _21  and  _22
REMARK   12  A    between atoms: _22  and  _23
REMARK   13  A    between atoms: _26  and  _27
REMARK   14  A    between atoms: _27  and  _28
REMARK   15  A    between atoms: _27  and  _30
REMARK   16  A    between atoms: _33  and  _34
REMARK   17  A    between atoms: _34  and  _35
REMARK   18  A    between atoms: _34  and  _37
REMARK   19  A    between atoms: _37  and  _38
REMARK   20  A    between atoms: _44  and  _45
REMARK   21  A    between atoms: _45  and  _46
REMARK   22  A    between atoms: _49  and  _50
REMARK   23  A    between atoms: _50  and  _51
REMARK   24  A    between atoms: _50  and  _53
REMARK   25  A    between atoms: _53  and  _54
REMARK   26  A    between atoms: _60  and  _61
REMARK   27  A    between atoms: _61  and  _62
REMARK   28  A    between atoms: _61  and  _64
REMARK   29  A    between atoms: _64  and  _65
REMARK   30  A    between atoms: _65  and  _66
REMARK   31  A    between atoms: _69  and  _70
REMARK   32  A    between atoms: _70  and  _71
REMARK   33  A    between atoms: _74  and  _75
REMARK   34  A    between atoms: _75  and  _76
REMARK   35  A    between atoms: _75  and  _78
REMARK   36  A    between atoms: _78  and  _79
REMARK   37  A    between atoms: _79  and  _80
REMARK   38  A    between atoms: _83  and  _84
REMARK   39  A    between atoms: _84  and  _86
REMARK   40  A    between atoms: _88  and  _90
REMARK   41  A    between atoms: _96  and  _97
REMARK   42  A    between atoms: _97  and  _98
REMARK   43  A    between atoms: _101  and  _102
REMARK   44  A    between atoms: _102  and  _103
REMARK   45  A    between atoms: _102  and  _105
REMARK   46  A    between atoms: _105  and  _106
REMARK   47  A    between atoms: _106  and  _107
REMARK   48  A    between atoms: _110  and  _111
REMARK   49  A    between atoms: _111  and  _112
REMARK   50  A    between atoms: _111  and  _114
REMARK   51  A    between atoms: _114  and  _115
REMARK   52  A    between atoms: _118  and  _119
REMARK   53  A    between atoms: _119  and  _120
REMARK   54  A    between atoms: _119  and  _122
REMARK   55  A    between atoms: _122  and  _123
REMARK   56  A    between atoms: _123  and  _124
REMARK   57  A    between atoms: _126  and  _127
REMARK   58  A    between atoms: _127  and  _128
REMARK   59  A    between atoms: _127  and  _130
REMARK   60  A    between atoms: _132  and  _133
REMARK   61  A    between atoms: _133  and  _134
REMARK   62  A    between atoms: _133  and  _136
REMARK   63  A    between atoms: _136  and  _137
REMARK   64  A    between atoms: _140  and  _141
REMARK   65  A    between atoms: _141  and  _142
REMARK   66  A    between atoms: _141  and  _144
REMARK   67  A    between atoms: _144  and  _145
REMARK   68  A    between atoms: _148  and  _149
REMARK   69  A    between atoms: _149  and  _150
REMARK   70  A    between atoms: _149  and  _152
REMARK   71  A    between atoms: _152  and  _153
REMARK   72  A    between atoms: _156  and  _157
REMARK   73  A    between atoms: _157  and  _158
REMARK   74  A    between atoms: _157  and  _160
REMARK   75  A    between atoms: _160  and  _161
REMARK   76  A    between atoms: _164  and  _165
REMARK   77  A    between atoms: _165  and  _166
REMARK   78  A    between atoms: _165  and  _168
REMARK   79  A    between atoms: _171  and  _172
REMARK   80  A    between atoms: _172  and  _173
REMARK   81  A    between atoms: _172  and  _175
REMARK   82  A    between atoms: _175  and  _176
REMARK   83  A    between atoms: _182  and  _183
REMARK   84  A    between atoms: _183  and  _184
REMARK   85  A    between atoms: _183  and  _186
REMARK   86  A    between atoms: _186  and  _187
REMARK   87  A    between atoms: _194  and  _195
REMARK   88  A    between atoms: _195  and  _196
REMARK   89  A    between atoms: _195  and  _198
REMARK   90  A    between atoms: _200  and  _201
REMARK   91  A    between atoms: _201  and  _202
REMARK   92  A    between atoms: _201  and  _204
REMARK   93  A    between atoms: _204  and  _205
REMARK   94  A    between atoms: _208  and  _209
REMARK   95  A    between atoms: _209  and  _210
REMARK   96  A    between atoms: _209  and  _212
REMARK   97  A    between atoms: _212  and  _213
REMARK   98  A    between atoms: _213  and  _214
REMARK   99  A    between atoms: _214  and  _215
REMARK  100  A    between atoms: _217  and  _218
REMARK  101  A    between atoms: _218  and  _219
REMARK  102  A    between atoms: _218  and  _221
REMARK  103  A    between atoms: _221  and  _222
REMARK  104  A    between atoms: _222  and  _223
REMARK  105  A    between atoms: _226  and  _227
REMARK  106  A    between atoms: _227  and  _228
REMARK  107  A    between atoms: _227  and  _230
REMARK  108  A    between atoms: _230  and  _231
REMARK  109  A    between atoms: _234  and  _235
REMARK  110  A    between atoms: _235  and  _236
REMARK  111  A    between atoms: _235  and  _238
REMARK  112  A    between atoms: _238  and  _239
REMARK  113  A    between atoms: _245  and  _246
REMARK  114  A    between atoms: _246  and  _247
REMARK  115  A    between atoms: _246  and  _249
REMARK  116  A    between atoms: _249  and  _250
REMARK  117  A    between atoms: _253  and  _254
REMARK  118  A    between atoms: _254  and  _255
REMARK  119  A    between atoms: _254  and  _257
REMARK  120  A    between atoms: _257  and  _258
REMARK  121  A    between atoms: _258  and  _259
REMARK  122  A    between atoms: _259  and  _260
REMARK  123  A    between atoms: _264  and  _265
REMARK  124  A    between atoms: _265  and  _266
REMARK  125  A    between atoms: _265  and  _268
REMARK  126  A    between atoms: _268  and  _269
REMARK  127  A    between atoms: _269  and  _270
REMARK  128  A    between atoms: _273  and  _274
REMARK  129  A    between atoms: _274  and  _275
REMARK  130  A    between atoms: _274  and  _277
REMARK  131  A    between atoms: _277  and  _278
REMARK  132  A    between atoms: _281  and  _282
REMARK  133  A    between atoms: _282  and  _283
REMARK  134  A    between atoms: _282  and  _285
REMARK  135  A    between atoms: _285  and  _286
REMARK  136  A    between atoms: _289  and  _290
REMARK  137  A    between atoms: _290  and  _295
REMARK  138  A    between atoms: _298  and  _299
REMARK  139  A    between atoms: _299  and  _300
REMARK  140  A    between atoms: _299  and  _302
REMARK  141  A    between atoms: _302  and  _303
REMARK  142  A    between atoms: _306  and  _307
REMARK  143  A    between atoms: _307  and  _308
REMARK  144  A    between atoms: _307  and  _310
REMARK  145  A    between atoms: _312  and  _313
REMARK  146  A    between atoms: _313  and  _314
REMARK  147  A    between atoms: _313  and  _316
REMARK  148  A    between atoms: _318  and  _319
REMARK  149  A    between atoms: _319  and  _320
REMARK  150  A    between atoms: _319  and  _322
REMARK  151  A    between atoms: _322  and  _323
REMARK  152  A    between atoms: _326  and  _327
REMARK  153  A    between atoms: _327  and  _328
REMARK  154  A    between atoms: _331  and  _332
REMARK  155  A    between atoms: _332  and  _333
REMARK  156  A    between atoms: _332  and  _335
REMARK  157  A    between atoms: _335  and  _336
REMARK  158  A    between atoms: _339  and  _340
REMARK  159  A    between atoms: _340  and  _341
REMARK  160  A    between atoms: _340  and  _343
REMARK  161  A    between atoms: _343  and  _344
REMARK  162  A    between atoms: _347  and  _348
REMARK  163  A    between atoms: _348  and  _349
REMARK  164  A    between atoms: _348  and  _351
REMARK  165  A    between atoms: _351  and  _352
REMARK  166  A    between atoms: _352  and  _353
REMARK  167  A    between atoms: _353  and  _354
REMARK  168  A    between atoms: _356  and  _357
REMARK  169  A    between atoms: _357  and  _358
REMARK  170  A    between atoms: _357  and  _360
REMARK  171  A    between atoms: _360  and  _361
REMARK  172  A    between atoms: _364  and  _365
REMARK  173  A    between atoms: _365  and  _366
REMARK  174  A    between atoms: _365  and  _368
REMARK  175  A    between atoms: _368  and  _369
REMARK  176  A    between atoms: _369  and  _370
REMARK  177  A    between atoms: _370  and  _371
REMARK  178  A    between atoms: _375  and  _376
REMARK  179  A    between atoms: _376  and  _377
REMARK  180  A    between atoms: _376  and  _379
REMARK  181  A    between atoms: _379  and  _380
REMARK  182  A    between atoms: _387  and  _388
REMARK  183  A    between atoms: _388  and  _389
REMARK  184  A    between atoms: _388  and  _391
REMARK  185  A    between atoms: _391  and  _392
REMARK  186  A    between atoms: _392  and  _393
REMARK  187  A    between atoms: _396  and  _397
REMARK  188  A    between atoms: _397  and  _398
REMARK  189  A    between atoms: _397  and  _400
REMARK  190  A    between atoms: _403  and  _404
REMARK  191  A    between atoms: _404  and  _405
REMARK  192  A    between atoms: _404  and  _407
REMARK  193  A    between atoms: _407  and  _408
REMARK  194  A    between atoms: _411  and  _412
REMARK  195  A    between atoms: _412  and  _413
REMARK  196  A    between atoms: _412  and  _415
REMARK  197  A    between atoms: _418  and  _419
REMARK  198  A    between atoms: _419  and  _420
REMARK  199  A    between atoms: _419  and  _422
REMARK  200  A    between atoms: _422  and  _423
REMARK  201  A    between atoms: _427  and  _428
REMARK  202  A    between atoms: _433  and  _434
REMARK  203  A    between atoms: _434  and  _435
REMARK  204  A    between atoms: _434  and  _437
REMARK  205  A    between atoms: _439  and  _440
REMARK  206  A    between atoms: _440  and  _441
REMARK  207  A    between atoms: _440  and  _443
REMARK  208  A    between atoms: _443  and  _444
REMARK  209  A    between atoms: _444  and  _445
REMARK  210  A    between atoms: _445  and  _446
REMARK  211  A    between atoms: _448  and  _449
REMARK  212  A    between atoms: _449  and  _450
REMARK  213  A    between atoms: _449  and  _452
REMARK  214  A    between atoms: _452  and  _453
REMARK  215  A    between atoms: _456  and  _457
REMARK  216  A    between atoms: _457  and  _458
REMARK  217  A    between atoms: _457  and  _460
REMARK  218  A    between atoms: _460  and  _461
REMARK  219  A    between atoms: _464  and  _465
REMARK  220  A    between atoms: _465  and  _466
REMARK  221  A    between atoms: _465  and  _468
REMARK  222  A    between atoms: _470  and  _471
REMARK  223  A    between atoms: _471  and  _472
REMARK  224  A    between atoms: _474  and  _475
REMARK  225  A    between atoms: _475  and  _476
REMARK  226  A    between atoms: _475  and  _478
REMARK  227  A    between atoms: _478  and  _479
REMARK  228  A    between atoms: _479  and  _480
REMARK  229  A    between atoms: _480  and  _481
REMARK  230  A    between atoms: _483  and  _484
REMARK  231  A    between atoms: _484  and  _485
REMARK  232  A    between atoms: _484  and  _487
REMARK  233  A    between atoms: _487  and  _488
REMARK  234  A    between atoms: _488  and  _489
REMARK  235  A    between atoms: _492  and  _493
REMARK  236  A    between atoms: _493  and  _494
REMARK  237  A    between atoms: _493  and  _496
REMARK  238  A    between atoms: _496  and  _497
REMARK  239  A    between atoms: _500  and  _501
REMARK  240  A    between atoms: _501  and  _502
REMARK  241  A    between atoms: _501  and  _504
REMARK  242  A    between atoms: _504  and  _505
REMARK  243  A    between atoms: _510  and  _511
REMARK  244  A    between atoms: _511  and  _512
REMARK  245  A    between atoms: _511  and  _514
REMARK  246  A    between atoms: _514  and  _515
REMARK  247  A    between atoms: _518  and  _519
REMARK  248  A    between atoms: _519  and  _520
REMARK  249  A    between atoms: _519  and  _522
REMARK  250  A    between atoms: _522  and  _523
REMARK  251  A    between atoms: _526  and  _527
REMARK  252  A    between atoms: _527  and  _528
REMARK  253  A    between atoms: _527  and  _530
REMARK  254  A    between atoms: _530  and  _531
REMARK  255  A    between atoms: _534  and  _535
REMARK  256  A    between atoms: _535  and  _536
REMARK  257  A    between atoms: _535  and  _538
REMARK  258  A    between atoms: _538  and  _539
REMARK  259  A    between atoms: _543  and  _544
REMARK  260  A    between atoms: _549  and  _550
REMARK  261  A    between atoms: _550  and  _551
REMARK  262  A    between atoms: _550  and  _553
REMARK  263  A    between atoms: _553  and  _554
REMARK  264  A    between atoms: _557  and  _558
REMARK  265  A    between atoms: _558  and  _559
REMARK  266  A    between atoms: _558  and  _561
REMARK  267  A    between atoms: _561  and  _562
REMARK  268  A    between atoms: _562  and  _563
REMARK  269  A    between atoms: _563  and  _564
REMARK  270  A    between atoms: _566  and  _567
REMARK  271  A    between atoms: _567  and  _568
REMARK  272  A    between atoms: _567  and  _570
REMARK  273  A    between atoms: _570  and  _571
REMARK  274  A    between atoms: _571  and  _572
REMARK  275  A    between atoms: _575  and  _576
REMARK  276  A    between atoms: _576  and  _577
REMARK  277  A    between atoms: _576  and  _579
REMARK  278  A    between atoms: _579  and  _580
REMARK  279  A    between atoms: _583  and  _584
REMARK  280  A    between atoms: _584  and  _585
REMARK  281  A    between atoms: _584  and  _587
REMARK  282  A    between atoms: _587  and  _588
REMARK  283  A    between atoms: _588  and  _589
REMARK  284  A    between atoms: _589  and  _590
REMARK  285  A    between atoms: _594  and  _595
REMARK  286  A    between atoms: _595  and  _596
REMARK  287  A    between atoms: _595  and  _598
REMARK  288  A    between atoms: _601  and  _602
REMARK  289  A    between atoms: _602  and  _603
REMARK  290  A    between atoms: _602  and  _605
REMARK  291  A    between atoms: _605  and  _606
REMARK  292  A    between atoms: _609  and  _610
REMARK  293  A    between atoms: _610  and  _611
REMARK  294  A    between atoms: _610  and  _613
REMARK  295  A    between atoms: _616  and  _617
REMARK  296  A    between atoms: _617  and  _618
REMARK  297  A    between atoms: _617  and  _620
REMARK  298  A    between atoms: _620  and  _621
REMARK  299  A    between atoms: _624  and  _625
REMARK  300  A    between atoms: _625  and  _626
REMARK  301  A    between atoms: _625  and  _628
REMARK  302  A    between atoms: _631  and  _632
REMARK  303  A    between atoms: _632  and  _633
REMARK  304  A    between atoms: _632  and  _635
REMARK  305  A    between atoms: _635  and  _636
REMARK  306  A    between atoms: _639  and  _640
REMARK  307  A    between atoms: _640  and  _641
REMARK  308  A    between atoms: _640  and  _643
REMARK  309  A    between atoms: _646  and  _647
REMARK  310  A    between atoms: _647  and  _648
REMARK  311  A    between atoms: _650  and  _651
REMARK  312  A    between atoms: _651  and  _652
REMARK  313  A    between atoms: _651  and  _654
REMARK  314  A    between atoms: _654  and  _655
REMARK  315  A    between atoms: _658  and  _659
REMARK  316  A    between atoms: _659  and  _660
REMARK  317  A    between atoms: _662  and  _663
REMARK  318  A    between atoms: _663  and  _664
REMARK  319  A    between atoms: _663  and  _666
REMARK  320  A    between atoms: _666  and  _667
REMARK  321  A    between atoms: _667  and  _668
REMARK  322  A    between atoms: _670  and  _671
REMARK  323  A    between atoms: _671  and  _672
REMARK  324  A    between atoms: _671  and  _674
REMARK  325  A    between atoms: _677  and  _678
REMARK  326  A    between atoms: _678  and  _679
REMARK  327  A    between atoms: _678  and  _681
REMARK  328  A    between atoms: _681  and  _682
REMARK  329  A    between atoms: _682  and  _683
REMARK  330  A    between atoms: _683  and  _684
REMARK  331  A    between atoms: _686  and  _687
REMARK  332  A    between atoms: _687  and  _688
REMARK  333  A    between atoms: _691  and  _692
REMARK  334  A    between atoms: _692  and  _693
REMARK  335  A    between atoms: _692  and  _695
REMARK  336  A    between atoms: _695  and  _696
REMARK  337  A    between atoms: _699  and  _700
REMARK  338  A    between atoms: _700  and  _701
REMARK  339  A    between atoms: _700  and  _703
REMARK  340  A    between atoms: _703  and  _704
REMARK  341  A    between atoms: _707  and  _708
REMARK  342  A    between atoms: _708  and  _709
REMARK  343  A    between atoms: _708  and  _711
REMARK  344  A    between atoms: _711  and  _712
REMARK  345  A    between atoms: _715  and  _716
REMARK  346  A    between atoms: _716  and  _717
REMARK  347  A    between atoms: _716  and  _719
REMARK  348  A    between atoms: _719  and  _720
REMARK  349  A    between atoms: _723  and  _724
REMARK  350  A    between atoms: _724  and  _725
REMARK  351  A    between atoms: _724  and  _727
REMARK  352  A    between atoms: _727  and  _728
REMARK  353  A    between atoms: _733  and  _734
REMARK  354  A    between atoms: _733  and  _736
REMARK  355  A    between atoms: _736  and  _739
REMARK  356  A    between atoms: _739  and  _741
REMARK  357  A    between atoms: _741  and  _742
REMARK  358  A    between atoms: _744  and  _745
REMARK  359  A    between atoms: _745  and  _746
REMARK  360  A    between atoms: _748  and  _749
REMARK  361  A    between atoms: _749  and  _750
REMARK  362  A    between atoms: _749  and  _752
REMARK  363  A    between atoms: _755  and  _756
REMARK  364  A    between atoms: _756  and  _757
REMARK  365  A    between atoms: _756  and  _759
REMARK  366  A    between atoms: _759  and  _760
REMARK  367  A    between atoms: _763  and  _764
REMARK  368  A    between atoms: _764  and  _765
REMARK  369  A    between atoms: _768  and  _769
REMARK  370  A    between atoms: _769  and  _770
REMARK  371  A    between atoms: _769  and  _772
REMARK  372  A    between atoms: _772  and  _773
REMARK  373  A    between atoms: _773  and  _774
REMARK  374  A    between atoms: _774  and  _775
REMARK  375  A    between atoms: _777  and  _778
REMARK  376  A    between atoms: _778  and  _779
REMARK  377  A    between atoms: _778  and  _781
REMARK  378  A    between atoms: _783  and  _784
REMARK  379  A    between atoms: _784  and  _785
REMARK  380  A    between atoms: _787  and  _788
REMARK  381  A    between atoms: _788  and  _789
REMARK  382  A    between atoms: _788  and  _791
REMARK  383  A    between atoms: _794  and  _795
REMARK  384  A    between atoms: _795  and  _796
REMARK  385  A    between atoms: _795  and  _798
REMARK  386  A    between atoms: _798  and  _799
REMARK  387  A    between atoms: _799  and  _800
REMARK  388  A    between atoms: _800  and  _801
REMARK  389  A    between atoms: _803  and  _804
REMARK  390  A    between atoms: _804  and  _805
REMARK  391  A    between atoms: _808  and  _809
REMARK  392  A    between atoms: _809  and  _810
REMARK  393  A    between atoms: _809  and  _812
REMARK  394  A    between atoms: _812  and  _813
REMARK  395  A    between atoms: _819  and  _820
REMARK  396  A    between atoms: _820  and  _821
REMARK  397  A    between atoms: _820  and  _823
REMARK  398  A    between atoms: _823  and  _824
REMARK  399  A    between atoms: _824  and  _825
REMARK  400  A    between atoms: _827  and  _828
REMARK  401  A    between atoms: _828  and  _829
REMARK  402  A    between atoms: _828  and  _831
REMARK  403  A    between atoms: _831  and  _832
REMARK  404  A    between atoms: _832  and  _833
REMARK  405  A    between atoms: _836  and  _837
REMARK  406  A    between atoms: _837  and  _838
REMARK  407  A    between atoms: _841  and  _842
REMARK  408  A    between atoms: _842  and  _843
REMARK  409  A    between atoms: _842  and  _845
REMARK  410  A    between atoms: _845  and  _846
REMARK  411  A    between atoms: _849  and  _850
REMARK  412  A    between atoms: _850  and  _851
REMARK  413  A    between atoms: _850  and  _853
REMARK  414  A    between atoms: _853  and  _854
REMARK  415  A    between atoms: _854  and  _855
REMARK  416  A    between atoms: _858  and  _859
REMARK  417  A    between atoms: _859  and  _860
REMARK  418  A    between atoms: _863  and  _864
REMARK  419  A    between atoms: _864  and  _865
REMARK  420  A    between atoms: _867  and  _868
REMARK  421  A    between atoms: _868  and  _869
REMARK  422  A    between atoms: _872  and  _873
REMARK  423  A    between atoms: _873  and  _874
REMARK  424  A    between atoms: _873  and  _876
REMARK  425  A    between atoms: _876  and  _877
REMARK  426  A    between atoms: _880  and  _881
REMARK  427  A    between atoms: _881  and  _882
REMARK  428  A    between atoms: _881  and  _884
REMARK  429  A    between atoms: _884  and  _885
REMARK  430  A    between atoms: _888  and  _889
REMARK  431  A    between atoms: _889  and  _890
REMARK  432  A    between atoms: _889  and  _892
REMARK  433  A    between atoms: _894  and  _895
REMARK  434  A    between atoms: _895  and  _896
REMARK  435  A    between atoms: _895  and  _898
REMARK  436  A    between atoms: _898  and  _899
REMARK  437  A    between atoms: _899  and  _900
REMARK  438  A    between atoms: _902  and  _903
REMARK  439  A    between atoms: _903  and  _904
REMARK  440  A    between atoms: _903  and  _906
REMARK  441  A    between atoms: _906  and  _907
REMARK  442  A    between atoms: _910  and  _911
REMARK  443  A    between atoms: _911  and  _912
REMARK  444  A    between atoms: _914  and  _915
REMARK  445  A    between atoms: _915  and  _916
REMARK  446  A    between atoms: _915  and  _918
REMARK  447  A    between atoms: _918  and  _919
REMARK  448  A    between atoms: _919  and  _920
REMARK  449  A    between atoms: _923  and  _924
REMARK  450  A    between atoms: _924  and  _925
REMARK  451  A    between atoms: _924  and  _927
REMARK  452  A    between atoms: _927  and  _928
REMARK  453  A    between atoms: _934  and  _935
REMARK  454  A    between atoms: _935  and  _936
REMARK  455  A    between atoms: _938  and  _939
REMARK  456  A    between atoms: _939  and  _940
REMARK  457  A    between atoms: _939  and  _942
REMARK  458  A    between atoms: _945  and  _946
REMARK  459  A    between atoms: _946  and  _947
REMARK  460  A    between atoms: _949  and  _950
REMARK  461  A    between atoms: _950  and  _951
REMARK  462  A    between atoms: _950  and  _953
REMARK  463  A    between atoms: _953  and  _954
REMARK  464  A    between atoms: _960  and  _961
REMARK  465  A    between atoms: _961  and  _962
REMARK  466  A    between atoms: _961  and  _964
REMARK  467  A    between atoms: _964  and  _965
REMARK  468  A    between atoms: _972  and  _973
REMARK  469  A    between atoms: _973  and  _974
REMARK  470  A    between atoms: _973  and  _976
REMARK  471  A    between atoms: _978  and  _979
REMARK  472  A    between atoms: _979  and  _980
REMARK  473  A    between atoms: _983  and  _984
REMARK  474  A    between atoms: _984  and  _985
REMARK  475  A    between atoms: _984  and  _987
REMARK  476  A    between atoms: _987  and  _988
REMARK  477  A    between atoms: _995  and  _996
REMARK  478  A    between atoms: _996  and  _997
REMARK  479  A    between atoms: _996  and  _999
REMARK  480  A    between atoms: _999  and  _1000
REMARK  481  A    between atoms: _1003  and  _1004
REMARK  482  A    between atoms: _1004  and  _1005
REMARK  483  A    between atoms: _1004  and  _1007
REMARK  484  A    between atoms: _1010  and  _1011
REMARK  485  A    between atoms: _1011  and  _1012
REMARK  486  A    between atoms: _1015  and  _1016
REMARK  487  A    between atoms: _1016  and  _1017
REMARK  488  A    between atoms: _1016  and  _1019
REMARK  489  A    between atoms: _1019  and  _1020
REMARK  490  A    between atoms: _1020  and  _1021
REMARK  491  A    between atoms: _1024  and  _1025
REMARK  492  A    between atoms: _1025  and  _1026
REMARK  493  A    between atoms: _1025  and  _1028
REMARK  494  A    between atoms: _1028  and  _1029
REMARK  495  A    between atoms: _1029  and  _1030
REMARK  496  A    between atoms: _1030  and  _1031
REMARK  497  A    between atoms: _1033  and  _1034
REMARK  498  A    between atoms: _1034  and  _1035
REMARK  499  A    between atoms: _1034  and  _1037
REMARK  500  A    between atoms: _1040  and  _1041
REMARK  501  A    between atoms: _1041  and  _1042
REMARK  502  A    between atoms: _1041  and  _1044
REMARK  503  A    between atoms: _1047  and  _1048
REMARK  504  A    between atoms: _1048  and  _1049
REMARK  505  A    between atoms: _1048  and  _1051
REMARK  506  A    between atoms: _1054  and  _1055
REMARK  507  A    between atoms: _1055  and  _1056
REMARK  508  A    between atoms: _1055  and  _1058
REMARK  509  A    between atoms: _1058  and  _1059
REMARK  510  A    between atoms: _1062  and  _1063
REMARK  511  A    between atoms: _1063  and  _1064
REMARK  512  A    between atoms: _1063  and  _1066
REMARK  513  A    between atoms: _1069  and  _1070
REMARK  514  A    between atoms: _1070  and  _1071
REMARK  515  A    between atoms: _1070  and  _1073
REMARK  516  A    between atoms: _1073  and  _1074
REMARK  517  A    between atoms: _1074  and  _1075
REMARK  518  A    between atoms: _1075  and  _1076
REMARK  519  A    between atoms: _1078  and  _1079
REMARK  520  A    between atoms: _1079  and  _1080
REMARK  521  A    between atoms: _1079  and  _1082
REMARK  522  A    between atoms: _1082  and  _1083
REMARK  523  A    between atoms: _1088  and  _1089
REMARK  524  A    between atoms: _1089  and  _1090
REMARK  525  A    between atoms: _1089  and  _1092
REMARK  526  A    between atoms: _1092  and  _1093
REMARK  527  A    between atoms: _1096  and  _1097
REMARK  528  A    between atoms: _1097  and  _1098
REMARK  529  A    between atoms: _1097  and  _1100
REMARK  530  A    between atoms: _1100  and  _1101
REMARK  531  A    between atoms: _1104  and  _1105
REMARK  532  A    between atoms: _1105  and  _1106
REMARK  533  A    between atoms: _1105  and  _1108
REMARK  534  A    between atoms: _1108  and  _1109
REMARK  535  A    between atoms: _1112  and  _1113
REMARK  536  A    between atoms: _1113  and  _1114
REMARK  537  A    between atoms: _1113  and  _1116
REMARK  538  A    between atoms: _1116  and  _1117
REMARK  539  A    between atoms: _1117  and  _1118
REMARK  540  A    between atoms: _1121  and  _1122
REMARK  541  A    between atoms: _1122  and  _1123
REMARK  542  A    between atoms: _1122  and  _1125
REMARK  543  A    between atoms: _1125  and  _1126
REMARK  544  A    between atoms: _1126  and  _1127
REMARK  545  A    between atoms: _1130  and  _1131
REMARK  546  A    between atoms: _1131  and  _1132
REMARK  547  A    between atoms: _1131  and  _1134
REMARK  548  A    between atoms: _1134  and  _1135
REMARK  549  A    between atoms: _1142  and  _1143
REMARK  550  A    between atoms: _1143  and  _1144
REMARK  551  A    between atoms: _1147  and  _1148
REMARK  552  A    between atoms: _1148  and  _1149
REMARK  553  A    between atoms: _1148  and  _1151
REMARK  554  A    between atoms: _1151  and  _1152
REMARK  555  A    between atoms: _1161  and  _1162
REMARK  556  A    between atoms: _1162  and  _1163
REMARK  557  A    between atoms: _1162  and  _1165
REMARK  558  A    between atoms: _1165  and  _1166
REMARK  559  A    between atoms: _1166  and  _1167
REMARK  560  A    between atoms: _1170  and  _1171
REMARK  561  A    between atoms: _1171  and  _1172
REMARK  562  A    between atoms: _1171  and  _1174
REMARK  563  A    between atoms: _1176  and  _1177
REMARK  564  A    between atoms: _1177  and  _1178
REMARK  565  A    between atoms: _1177  and  _1180
REMARK  566  A    between atoms: _1182  and  _1183
REMARK  567  A    between atoms: _1183  and  _1184
REMARK  568  A    between atoms: _1187  and  _1188
REMARK  569  A    between atoms: _1188  and  _1189
REMARK  570  A    between atoms: _1191  and  _1192
REMARK  571  A    between atoms: _1192  and  _1193
REMARK  572  A    between atoms: _1195  and  _1196
REMARK  573  A    between atoms: _1196  and  _1197
REMARK  574  A    between atoms: _1196  and  _1199
REMARK  575  A    between atoms: _1201  and  _1202
REMARK  576  A    between atoms: _1202  and  _1203
REMARK  577  A    between atoms: _1202  and  _1205
REMARK  578  A    between atoms: _1205  and  _1206
REMARK  579  A    between atoms: _1212  and  _1213
REMARK  580  A    between atoms: _1213  and  _1214
REMARK  581  A    between atoms: _1213  and  _1216
REMARK  582  A    between atoms: _1219  and  _1220
REMARK  583  A    between atoms: _1220  and  _1221
REMARK  584  A    between atoms: _1220  and  _1223
REMARK  585  A    between atoms: _1226  and  _1227
REMARK  586  A    between atoms: _1227  and  _1228
REMARK  587  A    between atoms: _1227  and  _1230
REMARK  588  A    between atoms: _1230  and  _1231
REMARK  589  A    between atoms: _1231  and  _1232
REMARK  590  A    between atoms: _1232  and  _1233
REMARK  591  A    between atoms: _1237  and  _1238
REMARK  592  A    between atoms: _1238  and  _1239
REMARK  593  A    between atoms: _1238  and  _1241
REMARK  594  A    between atoms: _1244  and  _1245
REMARK  595  A    between atoms: _1245  and  _1246
REMARK  596  A    between atoms: _1245  and  _1248
REMARK  597  A    between atoms: _1248  and  _1249
REMARK  598  A    between atoms: _1252  and  _1253
REMARK  599  A    between atoms: _1253  and  _1254
REMARK  600  A    between atoms: _1253  and  _1256
REMARK  601  A    between atoms: _1259  and  _1260
REMARK  602  A    between atoms: _1260  and  _1261
REMARK  603  A    between atoms: _1263  and  _1264
REMARK  604  A    between atoms: _1264  and  _1265
REMARK  605  A    between atoms: _1264  and  _1267
REMARK  606  A    between atoms: _1267  and  _1268
REMARK  607  A    between atoms: _1268  and  _1269
REMARK  608  A    between atoms: _1273  and  _1274
REMARK  609  A    between atoms: _1279  and  _1280
REMARK  610  A    between atoms: _1280  and  _1285
REMARK  611  A    between atoms: _1285  and  _1286
REMARK  612  A    between atoms: _1286  and  _1287
REMARK  613  A    between atoms: _1287  and  _1289
REMARK  614  A    between atoms: _1292  and  _1293
REMARK  615  A    between atoms: _1293  and  _1294
REMARK  616  A    between atoms: _1296  and  _1297
REMARK  617  A    between atoms: _1297  and  _1298
REMARK  618  A    between atoms: _1297  and  _1300
REMARK  619  A    between atoms: _1300  and  _1301
REMARK  620  A    between atoms: _1301  and  _1302
REMARK  621  A    between atoms: _1302  and  _1303
REMARK  622  A    between atoms: _1307  and  _1308
REMARK  623  A    between atoms: _1308  and  _1309
REMARK  624  A    between atoms: _1311  and  _1312
REMARK  625  A    between atoms: _1312  and  _1313
REMARK  626  A    between atoms: _1312  and  _1315
REMARK  627  A    between atoms: _1318  and  _1319
REMARK  628  A    between atoms: _1319  and  _1320
REMARK  629  A    between atoms: _1319  and  _1322
REMARK  630  A    between atoms: _1322  and  _1323
REMARK  631  A    between atoms: _1323  and  _1324
REMARK  632  A    between atoms: _1324  and  _1325
REMARK  633  A    between atoms: _1327  and  _1328
REMARK  634  A    between atoms: _1328  and  _1329
REMARK  635  A    between atoms: _1328  and  _1331
REMARK  636  A    between atoms: _1334  and  _1335
REMARK  637  A    between atoms: _1335  and  _1336
REMARK  638  A    between atoms: _1335  and  _1338
REMARK  639  A    between atoms: _1338  and  _1339
REMARK  640  A    between atoms: _1342  and  _1343
REMARK  641  A    between atoms: _1343  and  _1344
REMARK  642  A    between atoms: _1343  and  _1346
REMARK  643  A    between atoms: _1346  and  _1347
REMARK  644  A    between atoms: _1350  and  _1351
REMARK  645  A    between atoms: _1351  and  _1352
REMARK  646  A    between atoms: _1351  and  _1354
REMARK  647  A    between atoms: _1354  and  _1355
REMARK  648  A    between atoms: _1360  and  _1361
REMARK  649  A    between atoms: _1361  and  _1362
REMARK  650  A    between atoms: _1361  and  _1364
REMARK  651  A    between atoms: _1364  and  _1365
REMARK  652  A    between atoms: _1368  and  _1369
REMARK  653  A    between atoms: _1369  and  _1370
REMARK  654  A    between atoms: _1369  and  _1372
REMARK  655  A    between atoms: _1372  and  _1373
REMARK  656  A    between atoms: _1373  and  _1374
REMARK  657  A    between atoms: _1374  and  _1375
REMARK  658  A    between atoms: _1377  and  _1378
REMARK  659  A    between atoms: _1378  and  _1379
REMARK  660  A    between atoms: _1378  and  _1381
REMARK  661  A    between atoms: _1381  and  _1382
REMARK  662  A    between atoms: _1382  and  _1383
REMARK  663  A    between atoms: _1386  and  _1387
REMARK  664  A    between atoms: _1387  and  _1388
REMARK  665  A    between atoms: _1387  and  _1390
REMARK  666  A    between atoms: _1390  and  _1391
REMARK  667  A    between atoms: _1394  and  _1395
REMARK  668  A    between atoms: _1395  and  _1396
REMARK  669  A    between atoms: _1395  and  _1398
REMARK  670  A    between atoms: _1398  and  _1399
REMARK  671  A    between atoms: _1399  and  _1400
REMARK  672  A    between atoms: _1403  and  _1404
REMARK  673  A    between atoms: _1404  and  _1405
REMARK  674  A    between atoms: _1404  and  _1407
REMARK  675  A    between atoms: _1410  and  _1411
REMARK  676  A    between atoms: _1411  and  _1412
REMARK  677  A    between atoms: _1411  and  _1414
REMARK  678  A    between atoms: _1414  and  _1415
REMARK  679  A    between atoms: _1415  and  _1416
REMARK  680  A    between atoms: _1419  and  _1420
REMARK  681  A    between atoms: _1420  and  _1421
REMARK  682  A    between atoms: _1420  and  _1423
REMARK  683  A    between atoms: _1423  and  _1424
REMARK  684  A    between atoms: _1431  and  _1432
REMARK  685  A    between atoms: _1432  and  _1433
REMARK  686  A    between atoms: _1432  and  _1435
REMARK  687  A    between atoms: _1435  and  _1436
REMARK  688  A    between atoms: _1439  and  _1440
REMARK  689  A    between atoms: _1440  and  _1441
REMARK  690  A    between atoms: _1440  and  _1443
REMARK  691  A    between atoms: _1443  and  _1444
REMARK  692  A    between atoms: _1444  and  _1445
REMARK  693  A    between atoms: _1448  and  _1449
REMARK  694  A    between atoms: _1449  and  _1450
REMARK  695  A    between atoms: _1449  and  _1452
REMARK  696  A    between atoms: _1452  and  _1453
REMARK  697  A    between atoms: _1453  and  _1454
REMARK  698  A    between atoms: _1457  and  _1458
REMARK  699  A    between atoms: _1458  and  _1459
REMARK  700  A    between atoms: _1458  and  _1461
REMARK  701  A    between atoms: _1461  and  _1462
REMARK  702  A    between atoms: _1462  and  _1463
REMARK  703  A    between atoms: _1463  and  _1464
REMARK  704  A    between atoms: _1468  and  _1469
REMARK  705  A    between atoms: _1469  and  _1470
REMARK  706  A    between atoms: _1469  and  _1472
REMARK  707  A    between atoms: _1472  and  _1473
REMARK  708  A    between atoms: _1473  and  _1474
REMARK  709  A    between atoms: _1474  and  _1475
REMARK  710  A    between atoms: _1479  and  _1480
REMARK  711  A    between atoms: _1480  and  _1481
REMARK  712  A    between atoms: _1480  and  _1483
REMARK  713  A    between atoms: _1483  and  _1484
REMARK  714  A    between atoms: _1487  and  _1488
REMARK  715  A    between atoms: _1488  and  _1489
REMARK  716  A    between atoms: _1488  and  _1491
REMARK  717  A    between atoms: _1491  and  _1492
REMARK  718  A    between atoms: _1492  and  _1493
REMARK  719  A    between atoms: _1493  and  _1494
REMARK  720  A    between atoms: _1496  and  _1497
REMARK  721  A    between atoms: _1497  and  _1498
REMARK  722  A    between atoms: _1497  and  _1500
REMARK  723  A    between atoms: _1500  and  _1501
REMARK  724  A    between atoms: _1501  and  _1502
REMARK  725  A    between atoms: _1505  and  _1506
REMARK  726  A    between atoms: _1506  and  _1507
REMARK  727  A    between atoms: _1506  and  _1509
REMARK  728  A    between atoms: _1509  and  _1510
REMARK  729  A    between atoms: _1513  and  _1514
REMARK  730  A    between atoms: _1514  and  _1515
REMARK  731  A    between atoms: _1514  and  _1517
REMARK  732  A    between atoms: _1520  and  _1521
REMARK  733  A    between atoms: _1521  and  _1522
REMARK  734  A    between atoms: _1521  and  _1524
REMARK  735  A    between atoms: _1524  and  _1525
REMARK  736  A    between atoms: _1525  and  _1526
REMARK  737  A    between atoms: _1526  and  _1527
REMARK  738  A    between atoms: _1529  and  _1530
REMARK  739  A    between atoms: _1530  and  _1531
REMARK  740  A    between atoms: _1530  and  _1533
REMARK  741  A    between atoms: _1533  and  _1534
REMARK  742  A    between atoms: _1534  and  _1535
REMARK  743  A    between atoms: _1535  and  _1536
REMARK  744  A    between atoms: _1538  and  _1539
REMARK  745  A    between atoms: _1539  and  _1540
REMARK  746  A    between atoms: _1539  and  _1542
REMARK  747  A    between atoms: _1542  and  _1543
REMARK  748  A    between atoms: _1548  and  _1549
REMARK  749  A    between atoms: _1549  and  _1550
REMARK  750  A    between atoms: _1549  and  _1552
REMARK  751  A    between atoms: _1554  and  _1555
REMARK  752  A    between atoms: _1555  and  _1556
REMARK  753  A    between atoms: _1555  and  _1558
REMARK  754  A    between atoms: _1558  and  _1559
REMARK  755  A    between atoms: _1559  and  _1560
REMARK  756  A    between atoms: _1563  and  _1564
REMARK  757  A    between atoms: _1564  and  _1565
REMARK  758  A    between atoms: _1564  and  _1567
REMARK  759  A    between atoms: _1567  and  _1568
REMARK  760  A    between atoms: _1574  and  _1575
REMARK  761  A    between atoms: _1575  and  _1576
REMARK  762  A    between atoms: _1575  and  _1578
REMARK  763  A    between atoms: _1578  and  _1579
REMARK  764  A    between atoms: _1582  and  _1583
REMARK  765  A    between atoms: _1583  and  _1584
REMARK  766  A    between atoms: _1586  and  _1587
REMARK  767  A    between atoms: _1587  and  _1588
REMARK  768  A    between atoms: _1587  and  _1590
REMARK  769  A    between atoms: _1590  and  _1591
REMARK  770  A    between atoms: _1599  and  _1600
REMARK  771  A    between atoms: _1605  and  _1606
REMARK  772  A    between atoms: _1606  and  _1607
REMARK  773  A    between atoms: _1606  and  _1609
REMARK  774  A    between atoms: _1609  and  _1610
REMARK  775  A    between atoms: _1613  and  _1614
REMARK  776  A    between atoms: _1614  and  _1615
REMARK  777  A    between atoms: _1614  and  _1617
REMARK  778  A    between atoms: _1620  and  _1621
REMARK  779  A    between atoms: _1621  and  _1622
REMARK  780  A    between atoms: _1621  and  _1624
REMARK  781  A    between atoms: _1624  and  _1625
REMARK  782  A    between atoms: _1628  and  _1629
REMARK  783  A    between atoms: _1629  and  _1630
REMARK  784  A    between atoms: _1629  and  _1632
REMARK  785  A    between atoms: _1632  and  _1633
REMARK  786  A    between atoms: _1639  and  _1640
REMARK  787  A    between atoms: _1640  and  _1641
REMARK  788  A    between atoms: _1640  and  _1643
REMARK  789  A    between atoms: _1646  and  _1647
REMARK  790  A    between atoms: _1647  and  _1648
REMARK  791  A    between atoms: _1647  and  _1650
REMARK  792  A    between atoms: _1650  and  _1651
REMARK  793  A    between atoms: _1651  and  _1652
REMARK  794  A    between atoms: _1655  and  _1656
REMARK  795  A    between atoms: _1656  and  _1657
REMARK  796  A    between atoms: _1656  and  _1659
REMARK  797  A    between atoms: _1659  and  _1660
REMARK  798  A    between atoms: _1660  and  _1661
REMARK                            x       y       z     vdW  Elec       q    Type
REMARK                         _______ _______ _______ _____ _____    ______ ____
ROOT
ATOM      1  C   UNL     1      -2.797  -6.681  33.800  0.00  0.00    +0.000 C 
ENDROOT
TORSDOF 0
REMARK  Name = /Users/mlugowska/PhD/ML_residence_time_prediction/protein_files/5NYI_protein.pdb
REMARK  798 active torsions:
REMARK  status: ('A' for Active; 'I' for Inactive)
REMARK    1  A    between atoms: _2  and  _3
REMARK    2  A    between atoms: _2  and  _5
REMARK    3  A    between atoms: _5  and  _6
REMARK    4  A    between atoms: _6  and  _7
REMARK    5  A    between atoms: _10  and  _11
REMARK    6  A    between atoms: _11  and  _12
REMARK    7  A    between atoms: _11  and  _14
REMARK    8  A    between atoms: _17  and  _18
REMARK    9  A    between atoms: _18  and  _19
REMARK   10  A    between atoms: _18  and  _21
REMARK   11  A    between atoms: _21  and  _22
REMARK   12  A    between atoms: _22  and  _23
REMARK   13  A    between atoms: _26  and  _27
REMARK   14  A    between atoms: _27  and  _28
REMARK   15  A    between atoms: _27  and  _30
REMARK   16  A    between atoms: _33  and  _34
REMARK   17  A    between atoms: _34  and  _35
REMARK   18  A    between atoms: _34  and  _37
REMARK   19  A    between atoms: _37  and  _38
REMARK   20  A    between atoms: _44  and  _45
REMARK   21  A    between atoms: _45  and  _46
REMARK   22  A    between atoms: _49  and  _50
REMARK   23  A    between atoms: _50  and  _51
REMARK   24  A    between atoms: _50  and  _53
REMARK   25  A    between atoms: _53  and  _54
REMARK   26  A    between atoms: _60  and  _61
REMARK   27  A    between atoms: _61  and  _62
REMARK   28  A    between atoms: _61  and  _64
REMARK   29  A    between atoms: _64  and  _65
REMARK   30  A    between atoms: _65  and  _66
REMARK   31  A    between atoms: _69  and  _70
REMARK   32  A    between atoms: _70  and  _71
REMARK   33  A    between atoms: _74  and  _75
REMARK   34  A    between atoms: _75  and  _76
REMARK   35  A    between atoms: _75  and  _78
REMARK   36  A    between atoms: _78  and  _79
REMARK   37  A    between atoms: _79  and  _80
REMARK   38  A    between atoms: _83  and  _84
REMARK   39  A    between atoms: _84  and  _86
REMARK   40  A    between atoms: _88  and  _90
REMARK   41  A    between atoms: _96  and  _97
REMARK   42  A    between atoms: _97  and  _98
REMARK   43  A    between atoms: _101  and  _102
REMARK   44  A    between atoms: _102  and  _103
REMARK   45  A    between atoms: _102  and  _105
REMARK   46  A    between atoms: _105  and  _106
REMARK   47  A    between atoms: _106  and  _107
REMARK   48  A    between atoms: _110  and  _111
REMARK   49  A    between atoms: _111  and  _112
REMARK   50  A    between atoms: _111  and  _114
REMARK   51  A    between atoms: _114  and  _115
REMARK   52  A    between atoms: _118  and  _119
REMARK   53  A    between atoms: _119  and  _120
REMARK   54  A    between atoms: _119  and  _122
REMARK   55  A    between atoms: _122  and  _123
REMARK   56  A    between atoms: _123  and  _124
REMARK   57  A    between atoms: _126  and  _127
REMARK   58  A    between atoms: _127  and  _128
REMARK   59  A    between atoms: _127  and  _130
REMARK   60  A    between atoms: _132  and  _133
REMARK   61  A    between atoms: _133  and  _134
REMARK   62  A    between atoms: _133  and  _136
REMARK   63  A    between atoms: _136  and  _137
REMARK   64  A    between atoms: _140  and  _141
REMARK   65  A    between atoms: _141  and  _142
REMARK   66  A    between atoms: _141  and  _144
REMARK   67  A    between atoms: _144  and  _145
REMARK   68  A    between atoms: _148  and  _149
REMARK   69  A    between atoms: _149  and  _150
REMARK   70  A    between atoms: _149  and  _152
REMARK   71  A    between atoms: _152  and  _153
REMARK   72  A    between atoms: _156  and  _157
REMARK   73  A    between atoms: _157  and  _158
REMARK   74  A    between atoms: _157  and  _160
REMARK   75  A    between atoms: _160  and  _161
REMARK   76  A    between atoms: _164  and  _165
REMARK   77  A    between atoms: _165  and  _166
REMARK   78  A    between atoms: _165  and  _168
REMARK   79  A    between atoms: _171  and  _172
REMARK   80  A    between atoms: _172  and  _173
REMARK   81  A    between atoms: _172  and  _175
REMARK   82  A    between atoms: _175  and  _176
REMARK   83  A    between atoms: _182  and  _183
REMARK   84  A    between atoms: _183  and  _184
REMARK   85  A    between atoms: _183  and  _186
REMARK   86  A    between atoms: _186  and  _187
REMARK   87  A    between atoms: _194  and  _195
REMARK   88  A    between atoms: _195  and  _196
REMARK   89  A    between atoms: _195  and  _198
REMARK   90  A    between atoms: _200  and  _201
REMARK   91  A    between atoms: _201  and  _202
REMARK   92  A    between atoms: _201  and  _204
REMARK   93  A    between atoms: _204  and  _205
REMARK   94  A    between atoms: _208  and  _209
REMARK   95  A    between atoms: _209  and  _210
REMARK   96  A    between atoms: _209  and  _212
REMARK   97  A    between atoms: _212  and  _213
REMARK   98  A    between atoms: _213  and  _214
REMARK   99  A    between atoms: _214  and  _215
REMARK  100  A    between atoms: _217  and  _218
REMARK  101  A    between atoms: _218  and  _219
REMARK  102  A    between atoms: _218  and  _221
REMARK  103  A    between atoms: _221  and  _222
REMARK  104  A    between atoms: _222  and  _223
REMARK  105  A    between atoms: _226  and  _227
REMARK  106  A    between atoms: _227  and  _228
REMARK  107  A    between atoms: _227  and  _230
REMARK  108  A    between atoms: _230  and  _231
REMARK  109  A    between atoms: _234  and  _235
REMARK  110  A    between atoms: _235  and  _236
REMARK  111  A    between atoms: _235  and  _238
REMARK  112  A    between atoms: _238  and  _239
REMARK  113  A    between atoms: _245  and  _246
REMARK  114  A    between atoms: _246  and  _247
REMARK  115  A    between atoms: _246  and  _249
REMARK  116  A    between atoms: _249  and  _250
REMARK  117  A    between atoms: _253  and  _254
REMARK  118  A    between atoms: _254  and  _255
REMARK  119  A    between atoms: _254  and  _257
REMARK  120  A    between atoms: _257  and  _258
REMARK  121  A    between atoms: _258  and  _259
REMARK  122  A    between atoms: _259  and  _260
REMARK  123  A    between atoms: _264  and  _265
REMARK  124  A    between atoms: _265  and  _266
REMARK  125  A    between atoms: _265  and  _268
REMARK  126  A    between atoms: _268  and  _269
REMARK  127  A    between atoms: _269  and  _270
REMARK  128  A    between atoms: _273  and  _274
REMARK  129  A    between atoms: _274  and  _275
REMARK  130  A    between atoms: _274  and  _277
REMARK  131  A    between atoms: _277  and  _278
REMARK  132  A    between atoms: _281  and  _282
REMARK  133  A    between atoms: _282  and  _283
REMARK  134  A    between atoms: _282  and  _285
REMARK  135  A    between atoms: _285  and  _286
REMARK  136  A    between atoms: _289  and  _290
REMARK  137  A    between atoms: _290  and  _295
REMARK  138  A    between atoms: _298  and  _299
REMARK  139  A    between atoms: _299  and  _300
REMARK  140  A    between atoms: _299  and  _302
REMARK  141  A    between atoms: _302  and  _303
REMARK  142  A    between atoms: _306  and  _307
REMARK  143  A    between atoms: _307  and  _308
REMARK  144  A    between atoms: _307  and  _310
REMARK  145  A    between atoms: _312  and  _313
REMARK  146  A    between atoms: _313  and  _314
REMARK  147  A    between atoms: _313  and  _316
REMARK  148  A    between atoms: _318  and  _319
REMARK  149  A    between atoms: _319  and  _320
REMARK  150  A    between atoms: _319  and  _322
REMARK  151  A    between atoms: _322  and  _323
REMARK  152  A    between atoms: _326  and  _327
REMARK  153  A    between atoms: _327  and  _328
REMARK  154  A    between atoms: _331  and  _332
REMARK  155  A    between atoms: _332  and  _333
REMARK  156  A    between atoms: _332  and  _335
REMARK  157  A    between atoms: _335  and  _336
REMARK  158  A    between atoms: _339  and  _340
REMARK  159  A    between atoms: _340  and  _341
REMARK  160  A    between atoms: _340  and  _343
REMARK  161  A    between atoms: _343  and  _344
REMARK  162  A    between atoms: _347  and  _348
REMARK  163  A    between atoms: _348  and  _349
REMARK  164  A    between atoms: _348  and  _351
REMARK  165  A    between atoms: _351  and  _352
REMARK  166  A    between atoms: _352  and  _353
REMARK  167  A    between atoms: _353  and  _354
REMARK  168  A    between atoms: _356  and  _357
REMARK  169  A    between atoms: _357  and  _358
REMARK  170  A    between atoms: _357  and  _360
REMARK  171  A    between atoms: _360  and  _361
REMARK  172  A    between atoms: _364  and  _365
REMARK  173  A    between atoms: _365  and  _366
REMARK  174  A    between atoms: _365  and  _368
REMARK  175  A    between atoms: _368  and  _369
REMARK  176  A    between atoms: _369  and  _370
REMARK  177  A    between atoms: _370  and  _371
REMARK  178  A    between atoms: _375  and  _376
REMARK  179  A    between atoms: _376  and  _377
REMARK  180  A    between atoms: _376  and  _379
REMARK  181  A    between atoms: _379  and  _380
REMARK  182  A    between atoms: _387  and  _388
REMARK  183  A    between atoms: _388  and  _389
REMARK  184  A    between atoms: _388  and  _391
REMARK  185  A    between atoms: _391  and  _392
REMARK  186  A    between atoms: _392  and  _393
REMARK  187  A    between atoms: _396  and  _397
REMARK  188  A    between atoms: _397  and  _398
REMARK  189  A    between atoms: _397  and  _400
REMARK  190  A    between atoms: _403  and  _404
REMARK  191  A    between atoms: _404  and  _405
REMARK  192  A    between atoms: _404  and  _407
REMARK  193  A    between atoms: _407  and  _408
REMARK  194  A    between atoms: _411  and  _412
REMARK  195  A    between atoms: _412  and  _413
REMARK  196  A    between atoms: _412  and  _415
REMARK  197  A    between atoms: _418  and  _419
REMARK  198  A    between atoms: _419  and  _420
REMARK  199  A    between atoms: _419  and  _422
REMARK  200  A    between atoms: _422  and  _423
REMARK  201  A    between atoms: _427  and  _428
REMARK  202  A    between atoms: _433  and  _434
REMARK  203  A    between atoms: _434  and  _435
REMARK  204  A    between atoms: _434  and  _437
REMARK  205  A    between atoms: _439  and  _440
REMARK  206  A    between atoms: _440  and  _441
REMARK  207  A    between atoms: _440  and  _443
REMARK  208  A    between atoms: _443  and  _444
REMARK  209  A    between atoms: _444  and  _445
REMARK  210  A    between atoms: _445  and  _446
REMARK  211  A    between atoms: _448  and  _449
REMARK  212  A    between atoms: _449  and  _450
REMARK  213  A    between atoms: _449  and  _452
REMARK  214  A    between atoms: _452  and  _453
REMARK  215  A    between atoms: _456  and  _457
REMARK  216  A    between atoms: _457  and  _458
REMARK  217  A    between atoms: _457  and  _460
REMARK  218  A    between atoms: _460  and  _461
REMARK  219  A    between atoms: _464  and  _465
REMARK  220  A    between atoms: _465  and  _466
REMARK  221  A    between atoms: _465  and  _468
REMARK  222  A    between atoms: _470  and  _471
REMARK  223  A    between atoms: _471  and  _472
REMARK  224  A    between atoms: _474  and  _475
REMARK  225  A    between atoms: _475  and  _476
REMARK  226  A    between atoms: _475  and  _478
REMARK  227  A    between atoms: _478  and  _479
REMARK  228  A    between atoms: _479  and  _480
REMARK  229  A    between atoms: _480  and  _481
REMARK  230  A    between atoms: _483  and  _484
REMARK  231  A    between atoms: _484  and  _485
REMARK  232  A    between atoms: _484  and  _487
REMARK  233  A    between atoms: _487  and  _488
REMARK  234  A    between atoms: _488  and  _489
REMARK  235  A    between atoms: _492  and  _493
REMARK  236  A    between atoms: _493  and  _494
REMARK  237  A    between atoms: _493  and  _496
REMARK  238  A    between atoms: _496  and  _497
REMARK  239  A    between atoms: _500  and  _501
REMARK  240  A    between atoms: _501  and  _502
REMARK  241  A    between atoms: _501  and  _504
REMARK  242  A    between atoms: _504  and  _505
REMARK  243  A    between atoms: _510  and  _511
REMARK  244  A    between atoms: _511  and  _512
REMARK  245  A    between atoms: _511  and  _514
REMARK  246  A    between atoms: _514  and  _515
REMARK  247  A    between atoms: _518  and  _519
REMARK  248  A    between atoms: _519  and  _520
REMARK  249  A    between atoms: _519  and  _522
REMARK  250  A    between atoms: _522  and  _523
REMARK  251  A    between atoms: _526  and  _527
REMARK  252  A    between atoms: _527  and  _528
REMARK  253  A    between atoms: _527  and  _530
REMARK  254  A    between atoms: _530  and  _531
REMARK  255  A    between atoms: _534  and  _535
REMARK  256  A    between atoms: _535  and  _536
REMARK  257  A    between atoms: _535  and  _538
REMARK  258  A    between atoms: _538  and  _539
REMARK  259  A    between atoms: _543  and  _544
REMARK  260  A    between atoms: _549  and  _550
REMARK  261  A    between atoms: _550  and  _551
REMARK  262  A    between atoms: _550  and  _553
REMARK  263  A    between atoms: _553  and  _554
REMARK  264  A    between atoms: _557  and  _558
REMARK  265  A    between atoms: _558  and  _559
REMARK  266  A    between atoms: _558  and  _561
REMARK  267  A    between atoms: _561  and  _562
REMARK  268  A    between atoms: _562  and  _563
REMARK  269  A    between atoms: _563  and  _564
REMARK  270  A    between atoms: _566  and  _567
REMARK  271  A    between atoms: _567  and  _568
REMARK  272  A    between atoms: _567  and  _570
REMARK  273  A    between atoms: _570  and  _571
REMARK  274  A    between atoms: _571  and  _572
REMARK  275  A    between atoms: _575  and  _576
REMARK  276  A    between atoms: _576  and  _577
REMARK  277  A    between atoms: _576  and  _579
REMARK  278  A    between atoms: _579  and  _580
REMARK  279  A    between atoms: _583  and  _584
REMARK  280  A    between atoms: _584  and  _585
REMARK  281  A    between atoms: _584  and  _587
REMARK  282  A    between atoms: _587  and  _588
REMARK  283  A    between atoms: _588  and  _589
REMARK  284  A    between atoms: _589  and  _590
REMARK  285  A    between atoms: _594  and  _595
REMARK  286  A    between atoms: _595  and  _596
REMARK  287  A    between atoms: _595  and  _598
REMARK  288  A    between atoms: _601  and  _602
REMARK  289  A    between atoms: _602  and  _603
REMARK  290  A    between atoms: _602  and  _605
REMARK  291  A    between atoms: _605  and  _606
REMARK  292  A    between atoms: _609  and  _610
REMARK  293  A    between atoms: _610  and  _611
REMARK  294  A    between atoms: _610  and  _613
REMARK  295  A    between atoms: _616  and  _617
REMARK  296  A    between atoms: _617  and  _618
REMARK  297  A    between atoms: _617  and  _620
REMARK  298  A    between atoms: _620  and  _621
REMARK  299  A    between atoms: _624  and  _625
REMARK  300  A    between atoms: _625  and  _626
REMARK  301  A    between atoms: _625  and  _628
REMARK  302  A    between atoms: _631  and  _632
REMARK  303  A    between atoms: _632  and  _633
REMARK  304  A    between atoms: _632  and  _635
REMARK  305  A    between atoms: _635  and  _636
REMARK  306  A    between atoms: _639  and  _640
REMARK  307  A    between atoms: _640  and  _641
REMARK  308  A    between atoms: _640  and  _643
REMARK  309  A    between atoms: _646  and  _647
REMARK  310  A    between atoms: _647  and  _648
REMARK  311  A    between atoms: _650  and  _651
REMARK  312  A    between atoms: _651  and  _652
REMARK  313  A    between atoms: _651  and  _654
REMARK  314  A    between atoms: _654  and  _655
REMARK  315  A    between atoms: _658  and  _659
REMARK  316  A    between atoms: _659  and  _660
REMARK  317  A    between atoms: _662  and  _663
REMARK  318  A    between atoms: _663  and  _664
REMARK  319  A    between atoms: _663  and  _666
REMARK  320  A    between atoms: _666  and  _667
REMARK  321  A    between atoms: _667  and  _668
REMARK  322  A    between atoms: _670  and  _671
REMARK  323  A    between atoms: _671  and  _672
REMARK  324  A    between atoms: _671  and  _674
REMARK  325  A    between atoms: _677  and  _678
REMARK  326  A    between atoms: _678  and  _679
REMARK  327  A    between atoms: _678  and  _681
REMARK  328  A    between atoms: _681  and  _682
REMARK  329  A    between atoms: _682  and  _683
REMARK  330  A    between atoms: _683  and  _684
REMARK  331  A    between atoms: _686  and  _687
REMARK  332  A    between atoms: _687  and  _688
REMARK  333  A    between atoms: _691  and  _692
REMARK  334  A    between atoms: _692  and  _693
REMARK  335  A    between atoms: _692  and  _695
REMARK  336  A    between atoms: _695  and  _696
REMARK  337  A    between atoms: _699  and  _700
REMARK  338  A    between atoms: _700  and  _701
REMARK  339  A    between atoms: _700  and  _703
REMARK  340  A    between atoms: _703  and  _704
REMARK  341  A    between atoms: _707  and  _708
REMARK  342  A    between atoms: _708  and  _709
REMARK  343  A    between atoms: _708  and  _711
REMARK  344  A    between atoms: _711  and  _712
REMARK  345  A    between atoms: _715  and  _716
REMARK  346  A    between atoms: _716  and  _717
REMARK  347  A    between atoms: _716  and  _719
REMARK  348  A    between atoms: _719  and  _720
REMARK  349  A    between atoms: _723  and  _724
REMARK  350  A    between atoms: _724  and  _725
REMARK  351  A    between atoms: _724  and  _727
REMARK  352  A    between atoms: _727  and  _728
REMARK  353  A    between atoms: _733  and  _734
REMARK  354  A    between atoms: _733  and  _736
REMARK  355  A    between atoms: _736  and  _739
REMARK  356  A    between atoms: _739  and  _741
REMARK  357  A    between atoms: _741  and  _742
REMARK  358  A    between atoms: _744  and  _745
REMARK  359  A    between atoms: _745  and  _746
REMARK  360  A    between atoms: _748  and  _749
REMARK  361  A    between atoms: _749  and  _750
REMARK  362  A    between atoms: _749  and  _752
REMARK  363  A    between atoms: _755  and  _756
REMARK  364  A    between atoms: _756  and  _757
REMARK  365  A    between atoms: _756  and  _759
REMARK  366  A    between atoms: _759  and  _760
REMARK  367  A    between atoms: _763  and  _764
REMARK  368  A    between atoms: _764  and  _765
REMARK  369  A    between atoms: _768  and  _769
REMARK  370  A    between atoms: _769  and  _770
REMARK  371  A    between atoms: _769  and  _772
REMARK  372  A    between atoms: _772  and  _773
REMARK  373  A    between atoms: _773  and  _774
REMARK  374  A    between atoms: _774  and  _775
REMARK  375  A    between atoms: _777  and  _778
REMARK  376  A    between atoms: _778  and  _779
REMARK  377  A    between atoms: _778  and  _781
REMARK  378  A    between atoms: _783  and  _784
REMARK  379  A    between atoms: _784  and  _785
REMARK  380  A    between atoms: _787  and  _788
REMARK  381  A    between atoms: _788  and  _789
REMARK  382  A    between atoms: _788  and  _791
REMARK  383  A    between atoms: _794  and  _795
REMARK  384  A    between atoms: _795  and  _796
REMARK  385  A    between atoms: _795  and  _798
REMARK  386  A    between atoms: _798  and  _799
REMARK  387  A    between atoms: _799  and  _800
REMARK  388  A    between atoms: _800  and  _801
REMARK  389  A    between atoms: _803  and  _804
REMARK  390  A    between atoms: _804  and  _805
REMARK  391  A    between atoms: _808  and  _809
REMARK  392  A    between atoms: _809  and  _810
REMARK  393  A    between atoms: _809  and  _812
REMARK  394  A    between atoms: _812  and  _813
REMARK  395  A    between atoms: _819  and  _820
REMARK  396  A    between atoms: _820  and  _821
REMARK  397  A    between atoms: _820  and  _823
REMARK  398  A    between atoms: _823  and  _824
REMARK  399  A    between atoms: _824  and  _825
REMARK  400  A    between atoms: _827  and  _828
REMARK  401  A    between atoms: _828  and  _829
REMARK  402  A    between atoms: _828  and  _831
REMARK  403  A    between atoms: _831  and  _832
REMARK  404  A    between atoms: _832  and  _833
REMARK  405  A    between atoms: _836  and  _837
REMARK  406  A    between atoms: _837  and  _838
REMARK  407  A    between atoms: _841  and  _842
REMARK  408  A    between atoms: _842  and  _843
REMARK  409  A    between atoms: _842  and  _845
REMARK  410  A    between atoms: _845  and  _846
REMARK  411  A    between atoms: _849  and  _850
REMARK  412  A    between atoms: _850  and  _851
REMARK  413  A    between atoms: _850  and  _853
REMARK  414  A    between atoms: _853  and  _854
REMARK  415  A    between atoms: _854  and  _855
REMARK  416  A    between atoms: _858  and  _859
REMARK  417  A    between atoms: _859  and  _860
REMARK  418  A    between atoms: _863  and  _864
REMARK  419  A    between atoms: _864  and  _865
REMARK  420  A    between atoms: _867  and  _868
REMARK  421  A    between atoms: _868  and  _869
REMARK  422  A    between atoms: _872  and  _873
REMARK  423  A    between atoms: _873  and  _874
REMARK  424  A    between atoms: _873  and  _876
REMARK  425  A    between atoms: _876  and  _877
REMARK  426  A    between atoms: _880  and  _881
REMARK  427  A    between atoms: _881  and  _882
REMARK  428  A    between atoms: _881  and  _884
REMARK  429  A    between atoms: _884  and  _885
REMARK  430  A    between atoms: _888  and  _889
REMARK  431  A    between atoms: _889  and  _890
REMARK  432  A    between atoms: _889  and  _892
REMARK  433  A    between atoms: _894  and  _895
REMARK  434  A    between atoms: _895  and  _896
REMARK  435  A    between atoms: _895  and  _898
REMARK  436  A    between atoms: _898  and  _899
REMARK  437  A    between atoms: _899  and  _900
REMARK  438  A    between atoms: _902  and  _903
REMARK  439  A    between atoms: _903  and  _904
REMARK  440  A    between atoms: _903  and  _906
REMARK  441  A    between atoms: _906  and  _907
REMARK  442  A    between atoms: _910  and  _911
REMARK  443  A    between atoms: _911  and  _912
REMARK  444  A    between atoms: _914  and  _915
REMARK  445  A    between atoms: _915  and  _916
REMARK  446  A    between atoms: _915  and  _918
REMARK  447  A    between atoms: _918  and  _919
REMARK  448  A    between atoms: _919  and  _920
REMARK  449  A    between atoms: _923  and  _924
REMARK  450  A    between atoms: _924  and  _925
REMARK  451  A    between atoms: _924  and  _927
REMARK  452  A    between atoms: _927  and  _928
REMARK  453  A    between atoms: _934  and  _935
REMARK  454  A    between atoms: _935  and  _936
REMARK  455  A    between atoms: _938  and  _939
REMARK  456  A    between atoms: _939  and  _940
REMARK  457  A    between atoms: _939  and  _942
REMARK  458  A    between atoms: _945  and  _946
REMARK  459  A    between atoms: _946  and  _947
REMARK  460  A    between atoms: _949  and  _950
REMARK  461  A    between atoms: _950  and  _951
REMARK  462  A    between atoms: _950  and  _953
REMARK  463  A    between atoms: _953  and  _954
REMARK  464  A    between atoms: _960  and  _961
REMARK  465  A    between atoms: _961  and  _962
REMARK  466  A    between atoms: _961  and  _964
REMARK  467  A    between atoms: _964  and  _965
REMARK  468  A    between atoms: _972  and  _973
REMARK  469  A    between atoms: _973  and  _974
REMARK  470  A    between atoms: _973  and  _976
REMARK  471  A    between atoms: _978  and  _979
REMARK  472  A    between atoms: _979  and  _980
REMARK  473  A    between atoms: _983  and  _984
REMARK  474  A    between atoms: _984  and  _985
REMARK  475  A    between atoms: _984  and  _987
REMARK  476  A    between atoms: _987  and  _988
REMARK  477  A    between atoms: _995  and  _996
REMARK  478  A    between atoms: _996  and  _997
REMARK  479  A    between atoms: _996  and  _999
REMARK  480  A    between atoms: _999  and  _1000
REMARK  481  A    between atoms: _1003  and  _1004
REMARK  482  A    between atoms: _1004  and  _1005
REMARK  483  A    between atoms: _1004  and  _1007
REMARK  484  A    between atoms: _1010  and  _1011
REMARK  485  A    between atoms: _1011  and  _1012
REMARK  486  A    between atoms: _1015  and  _1016
REMARK  487  A    between atoms: _1016  and  _1017
REMARK  488  A    between atoms: _1016  and  _1019
REMARK  489  A    between atoms: _1019  and  _1020
REMARK  490  A    between atoms: _1020  and  _1021
REMARK  491  A    between atoms: _1024  and  _1025
REMARK  492  A    between atoms: _1025  and  _1026
REMARK  493  A    between atoms: _1025  and  _1028
REMARK  494  A    between atoms: _1028  and  _1029
REMARK  495  A    between atoms: _1029  and  _1030
REMARK  496  A    between atoms: _1030  and  _1031
REMARK  497  A    between atoms: _1033  and  _1034
REMARK  498  A    between atoms: _1034  and  _1035
REMARK  499  A    between atoms: _1034  and  _1037
REMARK  500  A    between atoms: _1040  and  _1041
REMARK  501  A    between atoms: _1041  and  _1042
REMARK  502  A    between atoms: _1041  and  _1044
REMARK  503  A    between atoms: _1047  and  _1048
REMARK  504  A    between atoms: _1048  and  _1049
REMARK  505  A    between atoms: _1048  and  _1051
REMARK  506  A    between atoms: _1054  and  _1055
REMARK  507  A    between atoms: _1055  and  _1056
REMARK  508  A    between atoms: _1055  and  _1058
REMARK  509  A    between atoms: _1058  and  _1059
REMARK  510  A    between atoms: _1062  and  _1063
REMARK  511  A    between atoms: _1063  and  _1064
REMARK  512  A    between atoms: _1063  and  _1066
REMARK  513  A    between atoms: _1069  and  _1070
REMARK  514  A    between atoms: _1070  and  _1071
REMARK  515  A    between atoms: _1070  and  _1073
REMARK  516  A    between atoms: _1073  and  _1074
REMARK  517  A    between atoms: _1074  and  _1075
REMARK  518  A    between atoms: _1075  and  _1076
REMARK  519  A    between atoms: _1078  and  _1079
REMARK  520  A    between atoms: _1079  and  _1080
REMARK  521  A    between atoms: _1079  and  _1082
REMARK  522  A    between atoms: _1082  and  _1083
REMARK  523  A    between atoms: _1088  and  _1089
REMARK  524  A    between atoms: _1089  and  _1090
REMARK  525  A    between atoms: _1089  and  _1092
REMARK  526  A    between atoms: _1092  and  _1093
REMARK  527  A    between atoms: _1096  and  _1097
REMARK  528  A    between atoms: _1097  and  _1098
REMARK  529  A    between atoms: _1097  and  _1100
REMARK  530  A    between atoms: _1100  and  _1101
REMARK  531  A    between atoms: _1104  and  _1105
REMARK  532  A    between atoms: _1105  and  _1106
REMARK  533  A    between atoms: _1105  and  _1108
REMARK  534  A    between atoms: _1108  and  _1109
REMARK  535  A    between atoms: _1112  and  _1113
REMARK  536  A    between atoms: _1113  and  _1114
REMARK  537  A    between atoms: _1113  and  _1116
REMARK  538  A    between atoms: _1116  and  _1117
REMARK  539  A    between atoms: _1117  and  _1118
REMARK  540  A    between atoms: _1121  and  _1122
REMARK  541  A    between atoms: _1122  and  _1123
REMARK  542  A    between atoms: _1122  and  _1125
REMARK  543  A    between atoms: _1125  and  _1126
REMARK  544  A    between atoms: _1126  and  _1127
REMARK  545  A    between atoms: _1130  and  _1131
REMARK  546  A    between atoms: _1131  and  _1132
REMARK  547  A    between atoms: _1131  and  _1134
REMARK  548  A    between atoms: _1134  and  _1135
REMARK  549  A    between atoms: _1142  and  _1143
REMARK  550  A    between atoms: _1143  and  _1144
REMARK  551  A    between atoms: _1147  and  _1148
REMARK  552  A    between atoms: _1148  and  _1149
REMARK  553  A    between atoms: _1148  and  _1151
REMARK  554  A    between atoms: _1151  and  _1152
REMARK  555  A    between atoms: _1161  and  _1162
REMARK  556  A    between atoms: _1162  and  _1163
REMARK  557  A    between atoms: _1162  and  _1165
REMARK  558  A    between atoms: _1165  and  _1166
REMARK  559  A    between atoms: _1166  and  _1167
REMARK  560  A    between atoms: _1170  and  _1171
REMARK  561  A    between atoms: _1171  and  _1172
REMARK  562  A    between atoms: _1171  and  _1174
REMARK  563  A    between atoms: _1176  and  _1177
REMARK  564  A    between atoms: _1177  and  _1178
REMARK  565  A    between atoms: _1177  and  _1180
REMARK  566  A    between atoms: _1182  and  _1183
REMARK  567  A    between atoms: _1183  and  _1184
REMARK  568  A    between atoms: _1187  and  _1188
REMARK  569  A    between atoms: _1188  and  _1189
REMARK  570  A    between atoms: _1191  and  _1192
REMARK  571  A    between atoms: _1192  and  _1193
REMARK  572  A    between atoms: _1195  and  _1196
REMARK  573  A    between atoms: _1196  and  _1197
REMARK  574  A    between atoms: _1196  and  _1199
REMARK  575  A    between atoms: _1201  and  _1202
REMARK  576  A    between atoms: _1202  and  _1203
REMARK  577  A    between atoms: _1202  and  _1205
REMARK  578  A    between atoms: _1205  and  _1206
REMARK  579  A    between atoms: _1212  and  _1213
REMARK  580  A    between atoms: _1213  and  _1214
REMARK  581  A    between atoms: _1213  and  _1216
REMARK  582  A    between atoms: _1219  and  _1220
REMARK  583  A    between atoms: _1220  and  _1221
REMARK  584  A    between atoms: _1220  and  _1223
REMARK  585  A    between atoms: _1226  and  _1227
REMARK  586  A    between atoms: _1227  and  _1228
REMARK  587  A    between atoms: _1227  and  _1230
REMARK  588  A    between atoms: _1230  and  _1231
REMARK  589  A    between atoms: _1231  and  _1232
REMARK  590  A    between atoms: _1232  and  _1233
REMARK  591  A    between atoms: _1237  and  _1238
REMARK  592  A    between atoms: _1238  and  _1239
REMARK  593  A    between atoms: _1238  and  _1241
REMARK  594  A    between atoms: _1244  and  _1245
REMARK  595  A    between atoms: _1245  and  _1246
REMARK  596  A    between atoms: _1245  and  _1248
REMARK  597  A    between atoms: _1248  and  _1249
REMARK  598  A    between atoms: _1252  and  _1253
REMARK  599  A    between atoms: _1253  and  _1254
REMARK  600  A    between atoms: _1253  and  _1256
REMARK  601  A    between atoms: _1259  and  _1260
REMARK  602  A    between atoms: _1260  and  _1261
REMARK  603  A    between atoms: _1263  and  _1264
REMARK  604  A    between atoms: _1264  and  _1265
REMARK  605  A    between atoms: _1264  and  _1267
REMARK  606  A    between atoms: _1267  and  _1268
REMARK  607  A    between atoms: _1268  and  _1269
REMARK  608  A    between atoms: _1273  and  _1274
REMARK  609  A    between atoms: _1279  and  _1280
REMARK  610  A    between atoms: _1280  and  _1285
REMARK  611  A    between atoms: _1285  and  _1286
REMARK  612  A    between atoms: _1286  and  _1287
REMARK  613  A    between atoms: _1287  and  _1289
REMARK  614  A    between atoms: _1292  and  _1293
REMARK  615  A    between atoms: _1293  and  _1294
REMARK  616  A    between atoms: _1296  and  _1297
REMARK  617  A    between atoms: _1297  and  _1298
REMARK  618  A    between atoms: _1297  and  _1300
REMARK  619  A    between atoms: _1300  and  _1301
REMARK  620  A    between atoms: _1301  and  _1302
REMARK  621  A    between atoms: _1302  and  _1303
REMARK  622  A    between atoms: _1307  and  _1308
REMARK  623  A    between atoms: _1308  and  _1309
REMARK  624  A    between atoms: _1311  and  _1312
REMARK  625  A    between atoms: _1312  and  _1313
REMARK  626  A    between atoms: _1312  and  _1315
REMARK  627  A    between atoms: _1318  and  _1319
REMARK  628  A    between atoms: _1319  and  _1320
REMARK  629  A    between atoms: _1319  and  _1322
REMARK  630  A    between atoms: _1322  and  _1323
REMARK  631  A    between atoms: _1323  and  _1324
REMARK  632  A    between atoms: _1324  and  _1325
REMARK  633  A    between atoms: _1327  and  _1328
REMARK  634  A    between atoms: _1328  and  _1329
REMARK  635  A    between atoms: _1328  and  _1331
REMARK  636  A    between atoms: _1334  and  _1335
REMARK  637  A    between atoms: _1335  and  _1336
REMARK  638  A    between atoms: _1335  and  _1338
REMARK  639  A    between atoms: _1338  and  _1339
REMARK  640  A    between atoms: _1342  and  _1343
REMARK  641  A    between atoms: _1343  and  _1344
REMARK  642  A    between atoms: _1343  and  _1346
REMARK  643  A    between atoms: _1346  and  _1347
REMARK  644  A    between atoms: _1350  and  _1351
REMARK  645  A    between atoms: _1351  and  _1352
REMARK  646  A    between atoms: _1351  and  _1354
REMARK  647  A    between atoms: _1354  and  _1355
REMARK  648  A    between atoms: _1360  and  _1361
REMARK  649  A    between atoms: _1361  and  _1362
REMARK  650  A    between atoms: _1361  and  _1364
REMARK  651  A    between atoms: _1364  and  _1365
REMARK  652  A    between atoms: _1368  and  _1369
REMARK  653  A    between atoms: _1369  and  _1370
REMARK  654  A    between atoms: _1369  and  _1372
REMARK  655  A    between atoms: _1372  and  _1373
REMARK  656  A    between atoms: _1373  and  _1374
REMARK  657  A    between atoms: _1374  and  _1375
REMARK  658  A    between atoms: _1377  and  _1378
REMARK  659  A    between atoms: _1378  and  _1379
REMARK  660  A    between atoms: _1378  and  _1381
REMARK  661  A    between atoms: _1381  and  _1382
REMARK  662  A    between atoms: _1382  and  _1383
REMARK  663  A    between atoms: _1386  and  _1387
REMARK  664  A    between atoms: _1387  and  _1388
REMARK  665  A    between atoms: _1387  and  _1390
REMARK  666  A    between atoms: _1390  and  _1391
REMARK  667  A    between atoms: _1394  and  _1395
REMARK  668  A    between atoms: _1395  and  _1396
REMARK  669  A    between atoms: _1395  and  _1398
REMARK  670  A    between atoms: _1398  and  _1399
REMARK  671  A    between atoms: _1399  and  _1400
REMARK  672  A    between atoms: _1403  and  _1404
REMARK  673  A    between atoms: _1404  and  _1405
REMARK  674  A    between atoms: _1404  and  _1407
REMARK  675  A    between atoms: _1410  and  _1411
REMARK  676  A    between atoms: _1411  and  _1412
REMARK  677  A    between atoms: _1411  and  _1414
REMARK  678  A    between atoms: _1414  and  _1415
REMARK  679  A    between atoms: _1415  and  _1416
REMARK  680  A    between atoms: _1419  and  _1420
REMARK  681  A    between atoms: _1420  and  _1421
REMARK  682  A    between atoms: _1420  and  _1423
REMARK  683  A    between atoms: _1423  and  _1424
REMARK  684  A    between atoms: _1431  and  _1432
REMARK  685  A    between atoms: _1432  and  _1433
REMARK  686  A    between atoms: _1432  and  _1435
REMARK  687  A    between atoms: _1435  and  _1436
REMARK  688  A    between atoms: _1439  and  _1440
REMARK  689  A    between atoms: _1440  and  _1441
REMARK  690  A    between atoms: _1440  and  _1443
REMARK  691  A    between atoms: _1443  and  _1444
REMARK  692  A    between atoms: _1444  and  _1445
REMARK  693  A    between atoms: _1448  and  _1449
REMARK  694  A    between atoms: _1449  and  _1450
REMARK  695  A    between atoms: _1449  and  _1452
REMARK  696  A    between atoms: _1452  and  _1453
REMARK  697  A    between atoms: _1453  and  _1454
REMARK  698  A    between atoms: _1457  and  _1458
REMARK  699  A    between atoms: _1458  and  _1459
REMARK  700  A    between atoms: _1458  and  _1461
REMARK  701  A    between atoms: _1461  and  _1462
REMARK  702  A    between atoms: _1462  and  _1463
REMARK  703  A    between atoms: _1463  and  _1464
REMARK  704  A    between atoms: _1468  and  _1469
REMARK  705  A    between atoms: _1469  and  _1470
REMARK  706  A    between atoms: _1469  and  _1472
REMARK  707  A    between atoms: _1472  and  _1473
REMARK  708  A    between atoms: _1473  and  _1474
REMARK  709  A    between atoms: _1474  and  _1475
REMARK  710  A    between atoms: _1479  and  _1480
REMARK  711  A    between atoms: _1480  and  _1481
REMARK  712  A    between atoms: _1480  and  _1483
REMARK  713  A    between atoms: _1483  and  _1484
REMARK  714  A    between atoms: _1487  and  _1488
REMARK  715  A    between atoms: _1488  and  _1489
REMARK  716  A    between atoms: _1488  and  _1491
REMARK  717  A    between atoms: _1491  and  _1492
REMARK  718  A    between atoms: _1492  and  _1493
REMARK  719  A    between atoms: _1493  and  _1494
REMARK  720  A    between atoms: _1496  and  _1497
REMARK  721  A    between atoms: _1497  and  _1498
REMARK  722  A    between atoms: _1497  and  _1500
REMARK  723  A    between atoms: _1500  and  _1501
REMARK  724  A    between atoms: _1501  and  _1502
REMARK  725  A    between atoms: _1505  and  _1506
REMARK  726  A    between atoms: _1506  and  _1507
REMARK  727  A    between atoms: _1506  and  _1509
REMARK  728  A    between atoms: _1509  and  _1510
REMARK  729  A    between atoms: _1513  and  _1514
REMARK  730  A    between atoms: _1514  and  _1515
REMARK  731  A    between atoms: _1514  and  _1517
REMARK  732  A    between atoms: _1520  and  _1521
REMARK  733  A    between atoms: _1521  and  _1522
REMARK  734  A    between atoms: _1521  and  _1524
REMARK  735  A    between atoms: _1524  and  _1525
REMARK  736  A    between atoms: _1525  and  _1526
REMARK  737  A    between atoms: _1526  and  _1527
REMARK  738  A    between atoms: _1529  and  _1530
REMARK  739  A    between atoms: _1530  and  _1531
REMARK  740  A    between atoms: _1530  and  _1533
REMARK  741  A    between atoms: _1533  and  _1534
REMARK  742  A    between atoms: _1534  and  _1535
REMARK  743  A    between atoms: _1535  and  _1536
REMARK  744  A    between atoms: _1538  and  _1539
REMARK  745  A    between atoms: _1539  and  _1540
REMARK  746  A    between atoms: _1539  and  _1542
REMARK  747  A    between atoms: _1542  and  _1543
REMARK  748  A    between atoms: _1548  and  _1549
REMARK  749  A    between atoms: _1549  and  _1550
REMARK  750  A    between atoms: _1549  and  _1552
REMARK  751  A    between atoms: _1554  and  _1555
REMARK  752  A    between atoms: _1555  and  _1556
REMARK  753  A    between atoms: _1555  and  _1558
REMARK  754  A    between atoms: _1558  and  _1559
REMARK  755  A    between atoms: _1559  and  _1560
REMARK  756  A    between atoms: _1563  and  _1564
REMARK  757  A    between atoms: _1564  and  _1565
REMARK  758  A    between atoms: _1564  and  _1567
REMARK  759  A    between atoms: _1567  and  _1568
REMARK  760  A    between atoms: _1574  and  _1575
REMARK  761  A    between atoms: _1575  and  _1576
REMARK  762  A    between atoms: _1575  and  _1578
REMARK  763  A    between atoms: _1578  and  _1579
REMARK  764  A    between atoms: _1582  and  _1583
REMARK  765  A    between atoms: _1583  and  _1584
REMARK  766  A    between atoms: _1586  and  _1587
REMARK  767  A    between atoms: _1587  and  _1588
REMARK  768  A    between atoms: _1587  and  _1590
REMARK  769  A    between atoms: _1590  and  _1591
REMARK  770  A    between atoms: _1599  and  _1600
REMARK  771  A    between atoms: _1605  and  _1606
REMARK  772  A    between atoms: _1606  and  _1607
REMARK  773  A    between atoms: _1606  and  _1609
REMARK  774  A    between atoms: _1609  and  _1610
REMARK  775  A    between atoms: _1613  and  _1614
REMARK  776  A    between atoms: _1614  and  _1615
REMARK  777  A    between atoms: _1614  and  _1617
REMARK  778  A    between atoms: _1620  and  _1621
REMARK  779  A    between atoms: _1621  and  _1622
REMARK  780  A    between atoms: _1621  and  _1624
REMARK  781  A    between atoms: _1624  and  _1625
REMARK  782  A    between atoms: _1628  and  _1629
REMARK  783  A    between atoms: _1629  and  _1630
REMARK  784  A    between atoms: _1629  and  _1632
REMARK  785  A    between atoms: _1632  and  _1633
REMARK  786  A    between atoms: _1639  and  _1640
REMARK  787  A    between atoms: _1640  and  _1641
REMARK  788  A    between atoms: _1640  and  _1643
REMARK  789  A    between atoms: _1646  and  _1647
REMARK  790  A    between atoms: _1647  and  _1648
REMARK  791  A    between atoms: _1647  and  _1650
REMARK  792  A    between atoms: _1650  and  _1651
REMARK  793  A    between atoms: _1651  and  _1652
REMARK  794  A    between atoms: _1655  and  _1656
REMARK  795  A    between atoms: _1656  and  _1657
REMARK  796  A    between atoms: _1656  and  _1659
REMARK  797  A    between atoms: _1659  and  _1660
REMARK  798  A    between atoms: _1660  and  _1661
REMARK                            x       y       z     vdW  Elec       q    Type
REMARK                         _______ _______ _______ _____ _____    ______ ____
ROOT
ATOM      1  C   VAL A  36       2.964 -22.771  37.632  0.00  0.00    +0.262 C 
ATOM      2  O   VAL A  36       2.410 -23.848  37.856  0.00  0.00    -0.271 OA
ATOM      3  N   ALA A  37       3.466 -22.422  36.424  0.00  0.00    -0.196 NA
ENDROOT
BRANCH   3   4
ATOM      4  CA  ALA A  37       3.364 -23.316  35.264  0.00  0.00    +0.173 C 
ATOM      5  CB  ALA A  37       2.819 -22.542  34.071  0.00  0.00    +0.033 C 
BRANCH   4   6
ATOM      6  C   ALA A  37       4.697 -23.911  34.883  0.00  0.00    +0.262 C 
ATOM      7  O   ALA A  37       5.690 -23.183  34.846  0.00  0.00    -0.271 OA
ATOM      8  N   GLU A  38       4.717 -25.204  34.561  0.00  0.00    -0.196 NA
BRANCH   8   9
ATOM      9  CA  GLU A  38       5.925 -25.845  34.040  0.00  0.00    +0.173 C 
BRANCH   9  10
ATOM     10  C   GLU A  38       6.052 -25.599  32.529  0.00  0.00    +0.262 C 
ATOM     11  O   GLU A  38       7.150 -25.693  31.980  0.00  0.00    -0.271 OA
ATOM     12  N   LYS A  39       4.925 -25.345  31.857  0.00  0.00    -0.196 NA
BRANCH  12  13
ATOM     13  CA  LYS A  39       4.898 -25.090  30.424  0.00  0.00    +0.173 C 
BRANCH  13  14
ATOM     14  C   LYS A  39       3.781 -24.109  30.178  0.00  0.00    +0.262 C 
ATOM     15  O   LYS A  39       2.760 -24.164  30.856  0.00  0.00    -0.271 OA
ATOM     16  N   VAL A  40       3.997 -23.173  29.260  0.00  0.00    -0.196 NA
BRANCH  16  17
ATOM     17  CA  VAL A  40       2.975 -22.205  28.881  0.00  0.00    +0.173 C 
BRANCH  17  18
ATOM     18  CB  VAL A  40       3.361 -20.777  29.325  0.00  0.00    +0.029 C 
ATOM     19  CG2 VAL A  40       3.569 -20.708  30.834  0.00  0.00    +0.002 C 
ATOM     20  CG1 VAL A  40       2.303 -19.763  28.892  0.00  0.00    +0.002 C 
ENDBRANCH  17  18
BRANCH  17  21
ATOM     21  C   VAL A  40       2.825 -22.259  27.371  0.00  0.00    +0.262 C 
ATOM     22  N   THR A  41       1.558 -22.316  26.890  0.00  0.00    -0.194 NA
ATOM     23  O   VAL A  40       3.837 -22.255  26.638  0.00  0.00    -0.271 OA
BRANCH  22  24
ATOM     24  CA  THR A  41       1.245 -22.300  25.471  0.00  0.00    +0.203 C 
BRANCH  24  25
ATOM     25  CB  THR A  41       0.432 -23.530  25.055  0.00  0.00    +0.181 C 
ATOM     26  OG1 THR A  41       1.091 -24.723  25.505  0.00  0.00    -0.221 OA
ATOM     27  CG2 THR A  41       0.226 -23.611  23.519  0.00  0.00    +0.038 C 
ENDBRANCH  24  25
BRANCH  24  28
ATOM     28  C   THR A  41       0.431 -21.043  25.250  0.00  0.00    +0.264 C 
ATOM     29  O   THR A  41      -0.503 -20.775  26.002  0.00  0.00    -0.271 OA
ATOM     30  N   VAL A  42       0.768 -20.269  24.226  0.00  0.00    -0.196 NA
BRANCH  30  31
ATOM     31  CA  VAL A  42       0.039 -19.050  23.919  0.00  0.00    +0.173 C 
BRANCH  31  32
ATOM     32  C   VAL A  42      -0.471 -19.206  22.512  0.00  0.00    +0.262 C 
ATOM     33  N   ILE A  43      -1.799 -19.241  22.331  0.00  0.00    -0.196 NA
ATOM     34  O   VAL A  42       0.342 -19.309  21.577  0.00  0.00    -0.271 OA
BRANCH  33  35
ATOM     35  CA  ILE A  43      -2.390 -19.360  21.002  0.00  0.00    +0.173 C 
BRANCH  35  36
ATOM     36  C   ILE A  43      -2.963 -17.978  20.692  0.00  0.00    +0.262 C 
ATOM     37  O   ILE A  43      -3.662 -17.399  21.541  0.00  0.00    -0.271 OA
ATOM     38  N   THR A  44      -2.697 -17.444  19.484  0.00  0.00    -0.194 NA
BRANCH  38  39
ATOM     39  CA  THR A  44      -3.133 -16.080  19.240  0.00  0.00    +0.203 C 
BRANCH  39  40
ATOM     40  C   THR A  44      -3.534 -15.869  17.798  0.00  0.00    +0.264 C 
ATOM     41  N   LYS A  45      -4.434 -14.906  17.596  0.00  0.00    -0.196 NA
ATOM     42  O   THR A  44      -3.032 -16.564  16.901  0.00  0.00    -0.271 OA
BRANCH  41  43
ATOM     43  CA  LYS A  45      -4.919 -14.561  16.273  0.00  0.00    +0.173 C 
BRANCH  43  44
ATOM     44  C   LYS A  45      -5.122 -13.053  16.199  0.00  0.00    +0.262 C 
ATOM     45  O   LYS A  45      -5.961 -12.508  16.918  0.00  0.00    -0.271 OA
ATOM     46  N   HIS A  46      -4.369 -12.406  15.314  0.00  0.00    -0.196 NA
BRANCH  46  47
ATOM     47  CA  HIS A  46      -4.458 -10.992  14.995  0.00  0.00    +0.179 C 
BRANCH  47  48
ATOM     48  C   HIS A  46      -5.103 -10.821  13.631  0.00  0.00    +0.262 C 
ATOM     49  N   ASN A  47      -5.916  -9.776  13.448  0.00  0.00    -0.196 NA
ATOM     50  O   HIS A  46      -4.878 -11.657  12.771  0.00  0.00    -0.271 OA
BRANCH  49  51
ATOM     51  CA  ASN A  47      -6.576  -9.577  12.149  0.00  0.00    +0.182 C 
BRANCH  51  52
ATOM     52  C   ASN A  47      -5.642  -9.653  10.944  0.00  0.00    +0.262 C 
ATOM     53  N   ASP A  48      -4.373  -9.239  11.102  0.00  0.00    -0.196 NA
ATOM     54  O   ASN A  47      -6.097 -10.047   9.855  0.00  0.00    -0.271 OA
BRANCH  53  55
ATOM     55  CA  ASP A  48      -3.403  -9.179   9.998  0.00  0.00    +0.184 C 
BRANCH  55  56
ATOM     56  C   ASP A  48      -2.536 -10.421   9.802  0.00  0.00    +0.262 C 
ATOM     57  N   ASP A  49      -2.812 -11.513  10.529  0.00  0.00    -0.196 NA
ATOM     58  O   ASP A  48      -1.624 -10.387   8.964  0.00  0.00    -0.271 OA
BRANCH  57  59
ATOM     59  CA  ASP A  49      -1.985 -12.716  10.399  0.00  0.00    +0.184 C 
BRANCH  59  60
ATOM     60  C   ASP A  49      -2.810 -13.973  10.676  0.00  0.00    +0.262 C 
ATOM     61  O   ASP A  49      -4.017 -13.897  10.952  0.00  0.00    -0.271 OA
ATOM     62  N   GLU A  50      -2.162 -15.132  10.582  0.00  0.00    -0.196 NA
BRANCH  62  63
ATOM     63  CA  GLU A  50      -2.787 -16.418  10.824  0.00  0.00    +0.173 C 
BRANCH  63  64
ATOM     64  C   GLU A  50      -2.742 -16.721  12.329  0.00  0.00    +0.262 C 
ATOM     65  O   GLU A  50      -2.093 -15.993  13.104  0.00  0.00    -0.271 OA
ATOM     66  N   GLN A  51      -3.402 -17.810  12.727  0.00  0.00    -0.196 NA
BRANCH  66  67
ATOM     67  CA  GLN A  51      -3.427 -18.262  14.114  0.00  0.00    +0.173 C 
BRANCH  67  68
ATOM     68  C   GLN A  51      -2.134 -19.032  14.403  0.00  0.00    +0.262 C 
ATOM     69  N   TYR A  52      -1.404 -18.607  15.446  0.00  0.00    -0.196 NA
ATOM     70  O   GLN A  51      -1.791 -19.975  13.680  0.00  0.00    -0.271 OA
BRANCH  69  71
ATOM     71  CA  TYR A  52      -0.128 -19.228  15.822  0.00  0.00    +0.177 C 
BRANCH  71  72
ATOM     72  C   TYR A  52      -0.141 -19.718  17.255  0.00  0.00    +0.262 C 
ATOM     73  O   TYR A  52      -0.899 -19.195  18.087  0.00  0.00    -0.271 OA
ATOM     74  N   ALA A  53       0.701 -20.729  17.540  0.00  0.00    -0.196 NA
BRANCH  74  75
ATOM     75  CA  ALA A  53       0.898 -21.242  18.877  0.00  0.00    +0.173 C 
ATOM     76  CB  ALA A  53       0.578 -22.732  18.950  0.00  0.00    +0.033 C 
BRANCH  75  77
ATOM     77  C   ALA A  53       2.364 -21.024  19.253  0.00  0.00    +0.262 C 
ATOM     78  N   TRP A  54       2.590 -20.346  20.369  0.00  0.00    -0.196 NA
ATOM     79  O   ALA A  53       3.263 -21.492  18.530  0.00  0.00    -0.271 OA
BRANCH  78  80
ATOM     80  CA  TRP A  54       3.893 -20.166  20.972  0.00  0.00    +0.177 C 
BRANCH  80  81
ATOM     81  C   TRP A  54       3.956 -21.069  22.162  0.00  0.00    +0.262 C 
ATOM     82  O   TRP A  54       2.941 -21.278  22.814  0.00  0.00    -0.271 OA
ATOM     83  N   GLU A  55       5.119 -21.640  22.460  0.00  0.00    -0.196 NA
BRANCH  83  84
ATOM     84  CA  GLU A  55       5.167 -22.522  23.611  0.00  0.00    +0.173 C 
BRANCH  84  85
ATOM     85  C   GLU A  55       6.560 -22.519  24.221  0.00  0.00    +0.262 C 
ATOM     86  N   SER A  56       6.638 -22.630  25.542  0.00  0.00    -0.194 NA
ATOM     87  O   GLU A  55       7.551 -22.482  23.500  0.00  0.00    -0.271 OA
BRANCH  86  88
ATOM     88  CA  SER A  56       7.935 -22.805  26.193  0.00  0.00    +0.205 C 
BRANCH  88  89
ATOM     89  C   SER A  56       7.774 -23.496  27.526  0.00  0.00    +0.264 C 
ATOM     90  O   SER A  56       6.872 -23.135  28.307  0.00  0.00    -0.271 OA
ATOM     91  N   SER A  57       8.706 -24.401  27.829  0.00  0.00    -0.194 NA
BRANCH  91  92
ATOM     92  CA  SER A  57       8.854 -24.997  29.165  0.00  0.00    +0.205 C 
BRANCH  92  93
ATOM     93  C   SER A  57      10.131 -24.405  29.800  0.00  0.00    +0.264 C 
ATOM     94  O   SER A  57      10.784 -25.038  30.651  0.00  0.00    -0.271 OA
ATOM     95  N   ALA A  58      10.500 -23.191  29.362  0.00  0.00    -0.196 NA
BRANCH  95  96
ATOM     96  CA  ALA A  58      11.717 -22.494  29.783  0.00  0.00    +0.173 C 
ATOM     97  CB  ALA A  58      11.743 -22.321  31.308  0.00  0.00    +0.033 C 
BRANCH  96  98
ATOM     98  C   ALA A  58      12.909 -23.338  29.206  0.00  0.00    +0.262 C 
ATOM     99  N   GLY A  59      14.005 -23.510  29.901  0.00  0.00    -0.194 NA
ATOM    100  O   ALA A  58      12.814 -23.786  28.063  0.00  0.00    -0.271 OA
BRANCH  99 101
ATOM    101  CA  GLY A  59      15.071 -24.292  29.271  0.00  0.00    +0.201 C 
BRANCH 101 102
ATOM    102  C   GLY A  59      15.795 -23.565  28.144  0.00  0.00    +0.264 C 
ATOM    103  N   GLY A  60      15.522 -22.257  28.015  0.00  0.00    -0.194 NA
ATOM    104  O   GLY A  59      16.589 -24.182  27.409  0.00  0.00    -0.271 OA
BRANCH 103 105
ATOM    105  CA  GLY A  60      16.240 -21.398  27.084  0.00  0.00    +0.201 C 
BRANCH 105 106
ATOM    106  C   GLY A  60      15.691 -21.270  25.681  0.00  0.00    +0.264 C 
ATOM    107  N   UNK A  61      14.558 -21.932  25.375  0.00  0.00    -0.194 NA
ATOM    108  O   GLY A  60      16.278 -20.535  24.873  0.00  0.00    -0.271 OA
BRANCH 107 109
ATOM    109  C   UNK A  61      14.010 -21.847  24.029  0.00  0.00    +0.205 C 
BRANCH 109 110
ATOM    110  C   UNK A  61      12.493 -21.807  24.055  0.00  0.00    +0.264 C 
ATOM    111  O   UNK A  61      11.861 -22.172  25.051  0.00  0.00    -0.271 OA
ATOM    112  N   UNK A  61      11.918 -21.362  22.934  0.00  0.00    -0.196 NA
BRANCH 112 113
ATOM    113  C   UNK A  61      10.476 -21.373  22.729  0.00  0.00    +0.177 C 
BRANCH 113 114
ATOM    114  C   UNK A  61      10.228 -21.831  21.304  0.00  0.00    +0.262 C 
ATOM    115  N   UNK A  61       9.035 -22.367  21.042  0.00  0.00    -0.194 NA
ATOM    116  O   UNK A  61      11.130 -21.755  20.452  0.00  0.00    -0.271 OA
BRANCH 115 117
ATOM    117  C   UNK A  61       8.686 -22.749  19.683  0.00  0.00    +0.203 C 
BRANCH 117 118
ATOM    118  C   UNK A  61       7.527 -21.900  19.198  0.00  0.00    +0.264 C 
ATOM    119  O   UNK A  61       6.738 -21.389  20.012  0.00  0.00    -0.271 OA
ATOM    120  N   UNK A  61       7.434 -21.755  17.867  0.00  0.00    -0.196 NA
BRANCH 120 121
ATOM    121  C   UNK A  61       6.315 -21.093  17.205  0.00  0.00    +0.173 C 
BRANCH 121 122
ATOM    122  C   UNK A  61       5.864 -22.002  16.070  0.00  0.00    +0.262 C 
ATOM    123  N   UNK A  61       4.551 -22.207  15.951  0.00  0.00    -0.196 NA
ATOM    124  O   UNK A  61       6.691 -22.451  15.275  0.00  0.00    -0.271 OA
BRANCH 123 125
ATOM    125  C   UNK A  61       4.002 -23.013  14.864  0.00  0.00    +0.173 C 
BRANCH 125 126
ATOM    126  C   UNK A  61       2.665 -22.459  14.458  0.00  0.00    +0.262 C 
ATOM    127  O   UNK A  61       2.008 -21.813  15.284  0.00  0.00    -0.271 OA
ATOM    128  N   UNK A  61       2.229 -22.737  13.216  0.00  0.00    -0.194 NA
BRANCH 128 129
ATOM    129  C   UNK A  61       0.879 -22.353  12.825  0.00  0.00    +0.203 C 
BRANCH 129 130
ATOM    130  C   UNK A  61       0.693 -22.502  11.298  0.00  0.00    +0.181 C 
ATOM    131  C   UNK A  61      -0.716 -22.145  10.841  0.00  0.00    +0.038 C 
ATOM    132  O   UNK A  61       1.602 -21.617  10.645  0.00  0.00    -0.221 OA
ENDBRANCH 129 130
BRANCH 129 133
ATOM    133  C   UNK A  61      -0.051 -23.265  13.638  0.00  0.00    +0.264 C 
ATOM    134  N   UNK A  61      -1.125 -22.695  14.207  0.00  0.00    -0.196 NA
ATOM    135  O   UNK A  61       0.226 -24.464  13.789  0.00  0.00    -0.271 OA
BRANCH 134 136
ATOM    136  C   UNK A  61      -2.032 -23.489  15.026  0.00  0.00    +0.184 C 
BRANCH 136 137
ATOM    137  C   UNK A  61      -3.119 -24.086  14.166  0.00  0.00    +0.262 C 
ATOM    138  N   UNK A  61      -3.316 -25.405  14.313  0.00  0.00    -0.194 NA
ATOM    139  O   UNK A  61      -3.785 -23.357  13.420  0.00  0.00    -0.271 OA
BRANCH 138 140
ATOM    140  C   UNK A  61      -4.341 -26.173  13.596  0.00  0.00    +0.203 C 
BRANCH 140 141
ATOM    141  C   UNK A  61      -3.732 -27.449  12.965  0.00  0.00    +0.181 C 
ATOM    142  O   UNK A  61      -3.082 -28.212  13.984  0.00  0.00    -0.221 OA
ATOM    143  C   UNK A  61      -2.759 -27.141  11.826  0.00  0.00    +0.038 C 
ENDBRANCH 140 141
BRANCH 140 144
ATOM    144  C   UNK A  61      -5.558 -26.484  14.498  0.00  0.00    +0.264 C 
ATOM    145  N   UNK A  61      -5.544 -25.983  15.739  0.00  0.00    -0.194 NA
ATOM    146  O   UNK A  61      -6.492 -27.160  14.051  0.00  0.00    -0.271 OA
BRANCH 145 147
ATOM    147  C   UNK A  61      -6.631 -26.169  16.701  0.00  0.00    +0.201 C 
BRANCH 147 148
ATOM    148  C   UNK A  61      -7.895 -25.394  16.351  0.00  0.00    +0.264 C 
ATOM    149  N   UNK A  61      -8.830 -25.305  17.299  0.00  0.00    -0.196 NA
ATOM    150  O   UNK A  61      -8.026 -24.863  15.250  0.00  0.00    -0.271 OA
BRANCH 149 151
ATOM    151  C   UNK A  61     -10.086 -24.594  17.115  0.00  0.00    +0.172 C 
BRANCH 151 152
ATOM    152  C   UNK A  61      -9.814 -23.109  16.739  0.00  0.00    +0.246 C 
ATOM    153  O   UNK A  61      -9.084 -22.434  17.475  0.00  0.00    -0.273 OA
ATOM    154  N   UNK A  61     -10.311 -22.618  15.578  0.00  0.00    -0.272 N 
ATOM    155  C   UNK A  61     -10.074 -21.209  15.216  0.00  0.00    +0.154 C 
ATOM    156  C   UNK A  61     -10.733 -21.066  13.843  0.00  0.00    +0.031 C 
ATOM    157  C   UNK A  61     -10.830 -22.497  13.313  0.00  0.00    +0.024 C 
ATOM    158  C   UNK A  61     -11.140 -23.291  14.554  0.00  0.00    +0.094 C 
BRANCH 155 159
ATOM    159  C   UNK A  61     -10.690 -20.284  16.261  0.00  0.00    +0.259 C 
ATOM    160  O   UNK A  61     -11.794 -20.532  16.761  0.00  0.00    -0.272 OA
ATOM    161  N   UNK A  61      -9.956 -19.223  16.597  0.00  0.00    -0.204 NA
BRANCH 161 162
ATOM    162  C   UNK A  61     -10.327 -18.257  17.627  0.00  0.00    +0.115 C 
BRANCH 162 163
ATOM    163  C   UNK A  61      -9.279 -17.970  18.587  0.00  0.00    +0.024 C 
BRANCH 163 164
ATOM    164  C   UNK A  61      -8.466 -18.990  19.157  0.00  0.00    +0.013 C 
BRANCH 164 165
ATOM    165  C   UNK A  61      -8.949 -19.106  19.512  0.00  0.00    +0.058 C 
BRANCH 165 166
ATOM    166  S   UNK A  61      -7.865 -18.489  20.799  0.00  0.00    -0.130 S 
ATOM    167  C   UNK A  61      -7.175 -17.175  20.758  0.00  0.00    +0.071 C 
ATOM    168  C   UNK A  61      -6.544 -17.745  19.789  0.00  0.00    +0.080 C 
ATOM    169  S   UNK A  61      -6.816 -18.545  19.685  0.00  0.00    -0.091 S 
ENDBRANCH 165 166
ENDBRANCH 164 165
ENDBRANCH 163 164
ENDBRANCH 162 163
ENDBRANCH 161 162
ENDBRANCH 155 159
ENDBRANCH 151 152
BRANCH 151 170
ATOM    170  C   UNK A  61     -10.916 -24.698  18.405  0.00  0.00    +0.043 C 
BRANCH 170 171
ATOM    171  C   UNK A  61     -12.398 -24.408  18.254  0.00  0.00    +0.116 C 
BRANCH 171 172
ATOM    172  C   UNK A  61     -13.143 -25.319  17.297  0.00  0.00    +0.365 C 
ATOM    173  O   UNK A  61     -13.120 -26.554  17.499  0.00  0.00    -0.246 OA
ATOM    174  O   UNK A  61     -13.673 -24.798  16.291  0.00  0.00    -0.246 OA
ENDBRANCH 171 172
ENDBRANCH 170 171
ENDBRANCH 151 170
ENDBRANCH 149 151
ENDBRANCH 147 148
ENDBRANCH 145 147
ENDBRANCH 140 144
ENDBRANCH 138 140
ENDBRANCH 136 137
BRANCH 136 175
ATOM    175  C   UNK A  61      -2.636 -22.652  16.154  0.00  0.00    +0.145 C 
BRANCH 175 176
ATOM    176  C   UNK A  61      -3.444 -23.474  17.151  0.00  0.00    +0.367 C 
ATOM    177  O   UNK A  61      -2.852 -24.367  17.816  0.00  0.00    -0.246 OA
ATOM    178  O   UNK A  61      -4.626 -23.173  17.334  0.00  0.00    -0.246 OA
ENDBRANCH 175 176
ENDBRANCH 136 175
ENDBRANCH 134 136
ENDBRANCH 129 133
ENDBRANCH 128 129
ENDBRANCH 125 126
BRANCH 125 179
ATOM    179  C   UNK A  61       3.865 -24.497  15.273  0.00  0.00    +0.035 C 
BRANCH 179 180
ATOM    180  C   UNK A  61       2.798 -24.824  16.312  0.00  0.00    +0.049 C 
BRANCH 180 181
ATOM    181  C   UNK A  61       3.023 -26.220  16.876  0.00  0.00    +0.220 C 
BRANCH 181 182
ATOM    182  N   UNK A  61       4.128 -26.193  17.842  0.00  0.00    -0.087 NA
ATOM    183  C   UNK A  61       4.735 -27.265  18.343  0.00  0.00    +0.535 C 
ATOM    184  N   UNK A  61       5.725 -27.126  19.221  0.00  0.00    +0.135 NA
ATOM    185  N   UNK A  61       4.362 -28.484  17.969  0.00  0.00    +0.135 NA
ENDBRANCH 181 182
ENDBRANCH 180 181
ENDBRANCH 179 180
ENDBRANCH 125 179
ENDBRANCH 123 125
ENDBRANCH 121 122
BRANCH 121 186
ATOM    186  C   UNK A  61       6.632 -19.675  16.674  0.00  0.00    +0.029 C 
ATOM    187  C   UNK A  61       7.087 -18.764  17.812  0.00  0.00    +0.002 C 
ATOM    188  C   UNK A  61       5.406 -19.077  15.958  0.00  0.00    +0.002 C 
ENDBRANCH 121 186
ENDBRANCH 120 121
ENDBRANCH 117 118
BRANCH 117 189
ATOM    189  C   UNK A  61       8.263 -24.225  19.598  0.00  0.00    +0.181 C 
ATOM    190  O   UNK A  61       7.128 -24.439  20.430  0.00  0.00    -0.221 OA
ATOM    191  C   UNK A  61       9.373 -25.182  20.035  0.00  0.00    +0.038 C 
ENDBRANCH 117 189
ENDBRANCH 115 117
ENDBRANCH 113 114
BRANCH 113 192
ATOM    192  C   UNK A  61       9.825 -19.998  22.985  0.00  0.00    +0.057 C 
BRANCH 192 193
ATOM    193  C   UNK A  61      10.296 -18.886  22.074  0.00  0.00    -0.020 A 
ATOM    194  C   UNK A  61      11.371 -18.079  22.433  0.00  0.00    -0.004 A 
ATOM    195  C   UNK A  61      11.792 -17.025  21.593  0.00  0.00    -0.000 A 
ATOM    196  C   UNK A  61      11.070 -16.714  20.462  0.00  0.00    -0.000 A 
ATOM    197  C   UNK A  61      10.000 -17.504  20.091  0.00  0.00    -0.000 A 
ATOM    198  C   UNK A  61       9.603 -18.582  20.901  0.00  0.00    -0.004 A 
ENDBRANCH 192 193
ENDBRANCH 113 192
ENDBRANCH 112 113
ENDBRANCH 109 110
BRANCH 109 199
ATOM    199  C   UNK A  61      14.443 -23.059  23.215  0.00  0.00    +0.213 C 
ATOM    200  O   UNK A  61      13.885 -24.261  23.732  0.00  0.00    -0.218 OA
ENDBRANCH 109 199
ENDBRANCH 107 109
ENDBRANCH 105 106
ENDBRANCH 103 105
ENDBRANCH 101 102
ENDBRANCH  99 101
ENDBRANCH  96  98
ENDBRANCH  95  96
ENDBRANCH  92  93
BRANCH  92 201
ATOM    201  CB  SER A  57       8.927 -26.520  29.093  0.00  0.00    +0.213 C 
ATOM    202  OG  SER A  57       7.754 -27.069  28.524  0.00  0.00    -0.218 OA
ENDBRANCH  92 201
ENDBRANCH  91  92
ENDBRANCH  88  89
BRANCH  88 203
ATOM    203  CB  SER A  56       8.637 -21.472  26.429  0.00  0.00    +0.213 C 
ATOM    204  OG  SER A  56       9.937 -21.652  26.972  0.00  0.00    -0.218 OA
ENDBRANCH  88 203
ENDBRANCH  86  88
ENDBRANCH  84  85
BRANCH  84 205
ATOM    205  CB  GLU A  55       4.811 -23.955  23.204  0.00  0.00    +0.043 C 
BRANCH 205 206
ATOM    206  CG  GLU A  55       4.625 -24.890  24.381  0.00  0.00    +0.116 C 
BRANCH 206 207
ATOM    207  CD  GLU A  55       3.958 -26.178  23.951  0.00  0.00    +0.365 C 
ATOM    208  OE2 GLU A  55       2.734 -26.316  24.171  0.00  0.00    -0.246 OA
ATOM    209  OE1 GLU A  55       4.642 -27.010  23.317  0.00  0.00    -0.246 OA
ENDBRANCH 206 207
ENDBRANCH 205 206
ENDBRANCH  84 205
ENDBRANCH  83  84
ENDBRANCH  80  81
BRANCH  80 210
ATOM    210  CB  TRP A  54       4.011 -18.715  21.413  0.00  0.00    +0.059 C 
BRANCH 210 211
ATOM    211  CG  TRP A  54       5.229 -18.286  22.190  0.00  0.00    +0.001 A 
ATOM    212  CD2 TRP A  54       5.501 -18.493  23.617  0.00  0.00    +0.015 A 
ATOM    213  CE3 TRP A  54       4.845 -19.132  24.646  0.00  0.00    +0.001 A 
ATOM    214  CZ3 TRP A  54       5.434 -19.139  25.897  0.00  0.00    +0.000 A 
ATOM    215  CH2 TRP A  54       6.642 -18.501  26.135  0.00  0.00    +0.002 A 
ATOM    216  CZ2 TRP A  54       7.324 -17.839  25.142  0.00  0.00    +0.019 A 
ATOM    217  CE2 TRP A  54       6.758 -17.831  23.891  0.00  0.00    +0.081 A 
ATOM    218  NE1 TRP A  54       7.177 -17.284  22.736  0.00  0.00    -0.244 NA
ATOM    219  CD1 TRP A  54       6.286 -17.525  21.736  0.00  0.00    +0.095 A 
ENDBRANCH 210 211
ENDBRANCH  80 210
ENDBRANCH  78  80
ENDBRANCH  75  77
ENDBRANCH  74  75
ENDBRANCH  71  72
BRANCH  71 220
ATOM    220  CB  TYR A  52       1.013 -18.193  15.674  0.00  0.00    +0.057 C 
BRANCH 220 221
ATOM    221  CG  TYR A  52       1.445 -17.995  14.239  0.00  0.00    -0.020 A 
ATOM    222  CD2 TYR A  52       2.298 -18.903  13.620  0.00  0.00    -0.001 A 
ATOM    223  CE2 TYR A  52       2.652 -18.766  12.280  0.00  0.00    +0.042 A 
ATOM    224  CZ  TYR A  52       2.119 -17.736  11.530  0.00  0.00    +0.196 A 
ATOM    225  CE1 TYR A  52       1.251 -16.828  12.116  0.00  0.00    +0.042 A 
ATOM    226  OH  TYR A  52       2.489 -17.629  10.207  0.00  0.00    -0.287 OA
ATOM    227  CD1 TYR A  52       0.912 -16.965  13.464  0.00  0.00    -0.001 A 
ENDBRANCH 220 221
ENDBRANCH  71 220
ENDBRANCH  69  71
ENDBRANCH  67  68
BRANCH  67 228
ATOM    228  CB  GLN A  51      -4.633 -19.173  14.351  0.00  0.00    +0.041 C 
BRANCH 228 229
ATOM    229  CG  GLN A  51      -4.858 -19.461  15.823  0.00  0.00    +0.091 C 
BRANCH 229 230
ATOM    230  CD  GLN A  51      -6.268 -19.922  16.061  0.00  0.00    +0.261 C 
ATOM    231  NE2 GLN A  51      -6.395 -21.106  16.679  0.00  0.00    -0.088 NA
ATOM    232  OE1 GLN A  51      -7.235 -19.201  15.739  0.00  0.00    -0.272 OA
ENDBRANCH 229 230
ENDBRANCH 228 229
ENDBRANCH  67 228
ENDBRANCH  66  67
ENDBRANCH  63  64
BRANCH  63 233
ATOM    233  CB  GLU A  50      -2.030 -17.509  10.040  0.00  0.00    +0.043 C 
BRANCH 233 234
ATOM    234  CG  GLU A  50      -2.138 -17.378   8.522  0.00  0.00    +0.116 C 
BRANCH 234 235
ATOM    235  CD  GLU A  50      -3.546 -17.364   7.963  0.00  0.00    +0.365 C 
ATOM    236  OE2 GLU A  50      -4.248 -18.394   8.087  0.00  0.00    -0.246 OA
ATOM    237  OE1 GLU A  50      -3.958 -16.311   7.424  0.00  0.00    -0.246 OA
ENDBRANCH 234 235
ENDBRANCH 233 234
ENDBRANCH  63 233
ENDBRANCH  62  63
ENDBRANCH  59  60
BRANCH  59 238
ATOM    238  CB  ASP A  49      -0.778 -12.613  11.362  0.00  0.00    +0.145 C 
BRANCH 238 239
ATOM    239  CG  ASP A  49       0.498 -13.318  10.924  0.00  0.00    +0.367 C 
ATOM    240  OD2 ASP A  49       1.569 -13.029  11.522  0.00  0.00    -0.246 OA
ATOM    241  OD1 ASP A  49       0.435 -14.145   9.959  0.00  0.00    -0.246 OA
ENDBRANCH 238 239
ENDBRANCH  59 238
ENDBRANCH  57  59
ENDBRANCH  55  56
BRANCH  55 242
ATOM    242  CB  ASP A  48      -2.486  -7.948  10.136  0.00  0.00    +0.145 C 
BRANCH 242 243
ATOM    243  CG  ASP A  48      -3.182  -6.593  10.132  0.00  0.00    +0.367 C 
ATOM    244  OD2 ASP A  48      -2.554  -5.613  10.566  0.00  0.00    -0.246 OA
ATOM    245  OD1 ASP A  48      -4.345  -6.521   9.684  0.00  0.00    -0.246 OA
ENDBRANCH 242 243
ENDBRANCH  55 242
ENDBRANCH  53  55
ENDBRANCH  51  52
BRANCH  51 246
ATOM    246  CB  ASN A  47      -7.292  -8.230  12.119  0.00  0.00    +0.120 C 
BRANCH 246 247
ATOM    247  CG  ASN A  47      -8.569  -8.211  12.907  0.00  0.00    +0.263 C 
ATOM    248  ND2 ASN A  47      -9.012  -7.018  13.302  0.00  0.00    -0.088 NA
ATOM    249  OD1 ASN A  47      -9.169  -9.249  13.177  0.00  0.00    -0.272 OA
ENDBRANCH 246 247
ENDBRANCH  51 246
ENDBRANCH  49  51
ENDBRANCH  47  48
BRANCH  47 250
ATOM    250  CB  HIS A  46      -3.054 -10.384  15.012  0.00  0.00    +0.079 C 
BRANCH 250 251
ATOM    251  CG  HIS A  46      -3.009  -8.912  14.701  0.00  0.00    +0.082 A 
ATOM    252  ND1 HIS A  46      -2.762  -7.980  15.627  0.00  0.00    -0.227 NA
ATOM    253  CE1 HIS A  46      -2.773  -6.779  15.054  0.00  0.00    +0.199 A 
ATOM    254  NE2 HIS A  46      -3.012  -6.944  13.759  0.00  0.00    -0.221 NA
ATOM    255  CD2 HIS A  46      -3.166  -8.240  13.508  0.00  0.00    +0.115 A 
ENDBRANCH 250 251
ENDBRANCH  47 250
ENDBRANCH  46  47
ENDBRANCH  43  44
BRANCH  43 256
ATOM    256  CB  LYS A  45      -6.234 -15.313  15.950  0.00  0.00    +0.031 C 
BRANCH 256 257
ATOM    257  CG  LYS A  45      -6.869 -14.919  14.613  0.00  0.00    +0.004 C 
BRANCH 257 258
ATOM    258  CD  LYS A  45      -6.046 -15.397  13.406  0.00  0.00    +0.021 C 
BRANCH 258 259
ATOM    259  CE  LYS A  45      -6.758 -15.118  12.099  0.00  0.00    +0.109 C 
ATOM    260  NZ  LYS A  45      -6.753 -13.654  11.774  0.00  0.00    -0.131 NA
ENDBRANCH 258 259
ENDBRANCH 257 258
ENDBRANCH 256 257
ENDBRANCH  43 256
ENDBRANCH  41  43
ENDBRANCH  39  40
BRANCH  39 261
ATOM    261  CB  THR A  44      -2.007 -15.097  19.703  0.00  0.00    +0.181 C 
ATOM    262  OG1 THR A  44      -2.503 -13.756  19.806  0.00  0.00    -0.221 OA
ATOM    263  CG2 THR A  44      -0.779 -15.155  18.787  0.00  0.00    +0.038 C 
ENDBRANCH  39 261
ENDBRANCH  38  39
ENDBRANCH  35  36
BRANCH  35 264
ATOM    264  CB  ILE A  43      -3.511 -20.418  20.965  0.00  0.00    +0.029 C 
ATOM    265  CG2 ILE A  43      -4.014 -20.619  19.517  0.00  0.00    +0.002 C 
BRANCH 264 266
ATOM    266  CG1 ILE A  43      -3.110 -21.771  21.623  0.00  0.00    +0.002 C 
ATOM    267  CD1 ILE A  43      -2.193 -22.624  20.951  0.00  0.00    +0.000 C 
ENDBRANCH 264 266
ENDBRANCH  35 264
ENDBRANCH  33  35
ENDBRANCH  31  32
BRANCH  31 268
ATOM    268  CB  VAL A  42       0.909 -17.776  24.077  0.00  0.00    +0.029 C 
ATOM    269  CG2 VAL A  42       1.420 -17.634  25.510  0.00  0.00    +0.002 C 
ATOM    270  CG1 VAL A  42       0.140 -16.528  23.645  0.00  0.00    +0.002 C 
ENDBRANCH  31 268
ENDBRANCH  30  31
ENDBRANCH  24  28
ENDBRANCH  22  24
ENDBRANCH  17  21
ENDBRANCH  16  17
ENDBRANCH  13  14
BRANCH  13 271
ATOM    271  CB  LYS A  39       4.641 -26.383  29.636  0.00  0.00    +0.031 C 
BRANCH 271 272
ATOM    272  CG  LYS A  39       4.628 -26.190  28.103  0.00  0.00    +0.004 C 
BRANCH 272 273
ATOM    273  CD  LYS A  39       4.598 -27.529  27.357  0.00  0.00    +0.021 C 
BRANCH 273 274
ATOM    274  CE  LYS A  39       3.263 -28.218  27.486  0.00  0.00    +0.109 C 
ATOM    275  NZ  LYS A  39       3.234 -29.514  26.721  0.00  0.00    -0.131 NA
ENDBRANCH 273 274
ENDBRANCH 272 273
ENDBRANCH 271 272
ENDBRANCH  13 271
ENDBRANCH  12  13
ENDBRANCH   9  10
BRANCH   9 276
ATOM    276  CB  GLU A  38       5.959 -27.353  34.366  0.00  0.00    +0.043 C 
BRANCH 276 277
ATOM    277  CG  GLU A  38       4.772 -28.138  33.857  0.00  0.00    +0.116 C 
BRANCH 277 278
ATOM    278  CD  GLU A  38       4.729 -29.593  34.287  0.00  0.00    +0.365 C 
ATOM    279  OE2 GLU A  38       5.362 -29.933  35.313  0.00  0.00    -0.246 OA
ATOM    280  OE1 GLU A  38       4.042 -30.390  33.607  0.00  0.00    -0.246 OA
ENDBRANCH 277 278
ENDBRANCH 276 277
ENDBRANCH   9 276
ENDBRANCH   8   9
ENDBRANCH   4   6
ENDBRANCH   3   4
BRANCH   1 281
ATOM    281  CA  VAL A  36       2.980 -21.712  38.723  0.00  0.00    +0.173 C 
BRANCH 281 284
ATOM    282  C   LEU A  35       4.912 -20.378  39.335  0.00  0.00    +0.262 C 
ATOM    283  O   LEU A  35       5.124 -21.103  40.318  0.00  0.00    -0.271 OA
ATOM    284  N   VAL A  36       3.917 -20.616  38.463  0.00  0.00    -0.196 NA
BRANCH 282 285
ATOM    285  CA  LEU A  35       5.775 -19.130  39.090  0.00  0.00    +0.173 C 
BRANCH 285 287
ATOM    286  C   TYR A  34       6.527 -19.714  36.861  0.00  0.00    +0.262 C 
ATOM    287  N   LEU A  35       5.817 -18.871  37.645  0.00  0.00    -0.196 NA
ATOM    288  O   TYR A  34       7.204 -20.658  37.331  0.00  0.00    -0.271 OA
BRANCH 286 289
ATOM    289  CA  TYR A  34       6.392 -19.553  35.343  0.00  0.00    +0.177 C 
BRANCH 289 292
ATOM    290  C   ALA A  33       4.142 -18.624  35.078  0.00  0.00    +0.262 C 
ATOM    291  O   ALA A  33       3.612 -19.633  35.545  0.00  0.00    -0.271 OA
ATOM    292  N   TYR A  34       5.486 -18.480  34.956  0.00  0.00    -0.196 NA
BRANCH 290 293
ATOM    293  CA  ALA A  33       3.269 -17.447  34.594  0.00  0.00    +0.173 C 
ATOM    294  CB  ALA A  33       2.951 -17.643  33.112  0.00  0.00    +0.033 C 
BRANCH 293 297
ATOM    295  C   SER A  32       4.433 -15.836  36.035  0.00  0.00    +0.264 C 
ATOM    296  O   SER A  32       4.252 -16.548  37.027  0.00  0.00    -0.271 OA
ATOM    297  N   ALA A  33       3.990 -16.176  34.799  0.00  0.00    -0.196 NA
BRANCH 295 298
ATOM    298  CA  SER A  32       5.277 -14.557  36.187  0.00  0.00    +0.205 C 
BRANCH 298 300
ATOM    299  C   TYR A  31       6.544 -14.832  34.108  0.00  0.00    +0.262 C 
ATOM    300  N   SER A  32       5.718 -14.071  34.871  0.00  0.00    -0.194 NA
ATOM    301  O   TYR A  31       7.024 -15.903  34.504  0.00  0.00    -0.271 OA
BRANCH 299 302
ATOM    302  CA  TYR A  31       6.880 -14.351  32.711  0.00  0.00    +0.177 C 
BRANCH 302 305
ATOM    303  C   PHE A  30       4.671 -13.567  32.026  0.00  0.00    +0.262 C 
ATOM    304  O   PHE A  30       4.170 -14.666  32.302  0.00  0.00    -0.271 OA
ATOM    305  N   TYR A  31       5.976 -13.286  32.248  0.00  0.00    -0.196 NA
BRANCH 303 306
ATOM    306  CA  PHE A  30       3.808 -12.469  31.399  0.00  0.00    +0.177 C 
BRANCH 306 309
ATOM    307  C   GLY A  29       4.136 -10.955  33.260  0.00  0.00    +0.264 C 
ATOM    308  O   GLY A  29       3.907 -11.862  34.070  0.00  0.00    -0.271 OA
ATOM    309  N   PHE A  30       4.099 -11.137  31.939  0.00  0.00    -0.196 NA
BRANCH 307 310
ATOM    310  CA  GLY A  29       4.500  -9.573  33.767  0.00  0.00    +0.201 C 
BRANCH 310 312
ATOM    311  C   VAL A  28       6.515  -9.172  32.452  0.00  0.00    +0.262 C 
ATOM    312  N   GLY A  29       5.315  -8.750  32.867  0.00  0.00    -0.194 NA
ATOM    313  O   VAL A  28       6.970 -10.274  32.759  0.00  0.00    -0.271 OA
BRANCH 311 314
ATOM    314  CA  VAL A  28       7.307  -8.207  31.539  0.00  0.00    +0.173 C 
BRANCH 314 316
ATOM    315  C   GLY A  27       6.663  -5.922  30.857  0.00  0.00    +0.264 C 
ATOM    316  N   VAL A  28       6.985  -6.797  31.826  0.00  0.00    -0.196 NA
ATOM    317  O   GLY A  27       6.582  -6.223  29.660  0.00  0.00    -0.271 OA
BRANCH 315 318
ATOM    318  CA  GLY A  27       6.394  -4.491  31.282  0.00  0.00    +0.201 C 
BRANCH 318 320
ATOM    319  C   PHE A  26       8.323  -3.987  32.720  0.00  0.00    +0.262 C 
ATOM    320  N   GLY A  27       7.004  -4.099  32.549  0.00  0.00    -0.194 NA
ATOM    321  O   PHE A  26       9.153  -4.268  31.856  0.00  0.00    -0.271 OA
BRANCH 319 322
ATOM    322  CA  PHE A  26       8.799  -3.457  34.084  0.00  0.00    +0.177 C 
BRANCH 322 324
ATOM    323  C   GLN A  25       7.166  -2.162  35.391  0.00  0.00    +0.262 C 
ATOM    324  N   PHE A  26       7.689  -3.354  35.024  0.00  0.00    -0.196 NA
ATOM    325  O   GLN A  25       7.570  -1.074  34.960  0.00  0.00    -0.271 OA
BRANCH 323 326
ATOM    326  CA  GLN A  25       6.045  -2.203  36.403  0.00  0.00    +0.173 C 
BRANCH 326 328
ATOM    327  C   GLY A  24       4.846  -4.169  35.549  0.00  0.00    +0.264 C 
ATOM    328  N   GLN A  25       5.524  -3.575  36.557  0.00  0.00    -0.196 NA
ATOM    329  O   GLY A  24       4.622  -3.600  34.467  0.00  0.00    -0.271 OA
BRANCH 327 330
ATOM    330  CA  GLY A  24       4.347  -5.582  35.788  0.00  0.00    +0.201 C 
BRANCH 330 332
ATOM    331  C   ILE A  23       6.439  -6.591  36.569  0.00  0.00    +0.262 C 
ATOM    332  N   GLY A  24       5.150  -6.315  36.764  0.00  0.00    -0.194 NA
ATOM    333  O   ILE A  23       7.053  -6.263  35.558  0.00  0.00    -0.271 OA
BRANCH 331 334
ATOM    334  CA  ILE A  23       7.162  -7.398  37.664  0.00  0.00    +0.173 C 
BRANCH 334 336
ATOM    335  C   MET A  22       6.758  -5.795  39.495  0.00  0.00    +0.262 C 
ATOM    336  N   ILE A  23       6.789  -7.058  39.035  0.00  0.00    -0.196 NA
ATOM    337  O   MET A  22       6.950  -4.814  38.778  0.00  0.00    -0.271 OA
BRANCH 335 338
ATOM    338  CA  MET A  22       6.412  -5.587  40.965  0.00  0.00    +0.174 C 
BRANCH 338 340
ATOM    339  C   SER A  21       5.218  -7.542  41.772  0.00  0.00    +0.264 C 
ATOM    340  N   MET A  22       6.341  -6.850  41.702  0.00  0.00    -0.196 NA
ATOM    341  O   SER A  21       4.201  -7.158  41.254  0.00  0.00    -0.271 OA
BRANCH 339 342
ATOM    342  CA  SER A  21       5.224  -8.845  42.595  0.00  0.00    +0.205 C 
BRANCH 342 344
ATOM    343  C   ILE A  20       7.375  -9.699  41.903  0.00  0.00    +0.262 C 
ATOM    344  N   SER A  21       6.564  -9.336  42.877  0.00  0.00    -0.194 NA
ATOM    345  O   ILE A  20       7.084  -9.586  40.751  0.00  0.00    -0.271 OA
BRANCH 343 346
ATOM    346  CA  ILE A  20       8.746 -10.212  42.308  0.00  0.00    +0.173 C 
BRANCH 346 348
ATOM    347  C   ASP A  19       9.328  -8.308  43.688  0.00  0.00    +0.262 C 
ATOM    348  N   ILE A  20       9.185  -9.605  43.540  0.00  0.00    -0.196 NA
ATOM    349  O   ASP A  19       8.985  -7.489  42.867  0.00  0.00    -0.271 OA
BRANCH 347 350
ATOM    350  CA  ASP A  19      10.019  -7.889  44.971  0.00  0.00    +0.184 C 
BRANCH 350 353
ATOM    351  C   ALA A  18      11.691  -6.245  45.092  0.00  0.00    +0.262 C 
ATOM    352  O   ALA A  18      12.503  -7.140  45.342  0.00  0.00    -0.271 OA
ATOM    353  N   ASP A  19      10.420  -6.506  44.915  0.00  0.00    -0.196 NA
BRANCH 351 354
ATOM    354  CA  ALA A  18      12.167  -4.794  44.952  0.00  0.00    +0.173 C 
ATOM    355  CB  ALA A  18      12.067  -4.359  43.490  0.00  0.00    +0.033 C 
BRANCH 354 358
ATOM    356  C   GLY A  17      13.848  -4.847  46.730  0.00  0.00    +0.264 C 
ATOM    357  O   GLY A  17      12.961  -4.959  47.580  0.00  0.00    -0.271 OA
ATOM    358  N   ALA A  18      13.562  -4.737  45.411  0.00  0.00    -0.196 NA
BRANCH 356 359
ATOM    359  CA  GLY A  17      15.301  -4.853  47.171  0.00  0.00    +0.201 C 
BRANCH 359 362
ATOM    360  C   ALA A  16      17.012  -3.474  46.100  0.00  0.00    +0.262 C 
ATOM    361  O   ALA A  16      16.778  -2.510  46.835  0.00  0.00    -0.271 OA
ATOM    362  N   GLY A  17      16.338  -4.622  46.171  0.00  0.00    -0.194 NA
BRANCH 360 363
ATOM    363  CA  ALA A  16      18.125  -3.372  45.034  0.00  0.00    +0.173 C 
ATOM    364  CB  ALA A  16      17.944  -2.115  44.192  0.00  0.00    +0.033 C 
BRANCH 363 367
ATOM    365  C   GLN A  15      18.996  -5.640  44.448  0.00  0.00    +0.262 C 
ATOM    366  O   GLN A  15      19.646  -5.761  45.499  0.00  0.00    -0.271 OA
ATOM    367  N   ALA A  16      18.245  -4.551  44.168  0.00  0.00    -0.196 NA
BRANCH 365 368
ATOM    368  CA  GLN A  15      18.989  -6.782  43.409  0.00  0.00    +0.173 C 
BRANCH 368 371
ATOM    369  C   LEU A  14      16.528  -7.085  43.384  0.00  0.00    +0.262 C 
ATOM    370  O   LEU A  14      16.464  -7.290  44.598  0.00  0.00    -0.271 OA
ATOM    371  N   GLN A  15      17.684  -6.853  42.731  0.00  0.00    -0.196 NA
BRANCH 369 372
ATOM    372  CA  LEU A  14      15.248  -7.048  42.547  0.00  0.00    +0.173 C 
BRANCH 372 375
ATOM    373  C   ALA A  13      15.312  -4.638  41.957  0.00  0.00    +0.262 C 
ATOM    374  O   ALA A  13      15.277  -4.281  43.138  0.00  0.00    -0.271 OA
ATOM    375  N   LEU A  14      15.285  -5.938  41.579  0.00  0.00    -0.196 NA
BRANCH 373 376
ATOM    376  CA  ALA A  13      15.394  -3.570  40.840  0.00  0.00    +0.173 C 
ATOM    377  CB  ALA A  13      14.000  -3.239  40.337  0.00  0.00    +0.033 C 
BRANCH 376 380
ATOM    378  C   GLU A  12      17.570  -4.202  39.903  0.00  0.00    +0.262 C 
ATOM    379  O   GLU A  12      18.128  -4.011  40.993  0.00  0.00    -0.271 OA
ATOM    380  N   ALA A  13      16.239  -4.020  39.730  0.00  0.00    -0.196 NA
BRANCH 378 381
ATOM    381  CA  GLU A  12      18.370  -4.738  38.703  0.00  0.00    +0.173 C 
BRANCH 381 384
ATOM    382  C   MET A  11      17.340  -6.967  38.533  0.00  0.00    +0.262 C 
ATOM    383  O   MET A  11      17.725  -7.272  39.668  0.00  0.00    -0.271 OA
ATOM    384  N   GLU A  12      17.593  -5.756  37.974  0.00  0.00    -0.196 NA
BRANCH 382 385
ATOM    385  CA  MET A  11      16.458  -7.942  37.755  0.00  0.00    +0.174 C 
BRANCH 385 388
ATOM    386  C   PHE A  10      14.529  -6.448  37.636  0.00  0.00    +0.262 C 
ATOM    387  O   PHE A  10      14.499  -6.330  38.865  0.00  0.00    -0.271 OA
ATOM    388  N   MET A  11      15.441  -7.211  36.985  0.00  0.00    -0.196 NA
BRANCH 386 389
ATOM    389  CA  PHE A  10      13.492  -5.717  36.773  0.00  0.00    +0.177 C 
BRANCH 389 392
ATOM    390  C   ALA A   9      14.964  -4.006  35.914  0.00  0.00    +0.262 C 
ATOM    391  O   ALA A   9      15.194  -3.584  37.063  0.00  0.00    -0.271 OA
ATOM    392  N   PHE A  10      14.156  -5.036  35.670  0.00  0.00    -0.196 NA
BRANCH 390 393
ATOM    393  CA  ALA A   9      15.630  -3.358  34.681  0.00  0.00    +0.173 C 
ATOM    394  CB  ALA A   9      14.673  -2.354  34.043  0.00  0.00    +0.033 C 
BRANCH 393 397
ATOM    395  C   LYS A   8      16.955  -5.338  33.916  0.00  0.00    +0.262 C 
ATOM    396  O   LYS A   8      17.520  -5.491  35.000  0.00  0.00    -0.271 OA
ATOM    397  N   ALA A   9      16.027  -4.369  33.692  0.00  0.00    -0.196 NA
BRANCH 395 398
ATOM    398  CA  LYS A   8      17.241  -6.321  32.771  0.00  0.00    +0.173 C 
BRANCH 398 401
ATOM    399  C   THR A   7      15.119  -7.567  32.926  0.00  0.00    +0.264 C 
ATOM    400  O   THR A   7      15.281  -7.837  34.120  0.00  0.00    -0.271 OA
ATOM    401  N   LYS A   8      15.994  -6.828  32.202  0.00  0.00    -0.196 NA
BRANCH 399 402
ATOM    402  CA  THR A   7      13.852  -8.019  32.244  0.00  0.00    +0.203 C 
BRANCH 402 405
ATOM    403  C   GLY A   6      12.899  -5.783  31.889  0.00  0.00    +0.264 C 
ATOM    404  O   GLY A   6      12.878  -5.530  33.096  0.00  0.00    -0.271 OA
ATOM    405  N   THR A   7      13.343  -6.950  31.379  0.00  0.00    -0.194 NA
BRANCH 403 406
ATOM    406  CA  GLY A   6      12.344  -4.780  30.898  0.00  0.00    +0.201 C 
BRANCH 406 409
ATOM    407  C   SER A   5      14.379  -4.094  29.803  0.00  0.00    +0.264 C 
ATOM    408  O   SER A   5      14.876  -3.748  30.880  0.00  0.00    -0.271 OA
ATOM    409  N   GLY A   6      13.173  -4.633  29.708  0.00  0.00    -0.194 NA
BRANCH 407 410
ATOM    410  CA  SER A   5      15.152  -3.886  28.479  0.00  0.00    +0.205 C 
BRANCH 410 413
ATOM    411  C   LYS A   4      15.564  -6.277  27.989  0.00  0.00    +0.262 C 
ATOM    412  O   LYS A   4      16.113  -6.493  29.067  0.00  0.00    -0.271 OA
ATOM    413  N   SER A   5      15.052  -5.074  27.651  0.00  0.00    -0.194 NA
BRANCH 411 414
ATOM    414  CA  LYS A   4      15.344  -7.416  26.991  0.00  0.00    +0.173 C 
BRANCH 414 417
ATOM    415  C   ALA A   3      13.025  -7.693  27.603  0.00  0.00    +0.262 C 
ATOM    416  O   ALA A   3      13.361  -7.872  28.776  0.00  0.00    -0.271 OA
ATOM    417  N   LYS A   4      13.913  -7.454  26.624  0.00  0.00    -0.196 NA
BRANCH 415 418
ATOM    418  CA  ALA A   3      11.543  -7.692  27.279  0.00  0.00    +0.173 C 
ATOM    419  CB  ALA A   3      11.026  -9.120  27.166  0.00  0.00    +0.033 C 
BRANCH 418 422
ATOM    420  C   ILE A   2      11.295  -5.551  26.119  0.00  0.00    +0.262 C 
ATOM    421  O   ILE A   2      11.853  -4.947  27.035  0.00  0.00    -0.271 OA
ATOM    422  N   ALA A   3      11.146  -6.893  26.127  0.00  0.00    -0.196 NA
BRANCH 420 423
ATOM    423  CA  ILE A   2      10.617  -4.821  24.937  0.00  0.00    +0.173 C 
BRANCH 423 425
ATOM    424  C   THR A   1       8.602  -6.121  24.371  0.00  0.00    +0.264 C 
ATOM    425  N   ILE A   2       9.190  -5.143  25.084  0.00  0.00    -0.196 NA
ATOM    426  O   THR A   1       9.188  -6.758  23.483  0.00  0.00    -0.271 OA
BRANCH 424 427
ATOM    427  CA  THR A   1       7.178  -6.505  24.759  0.00  0.00    +0.203 C 
BRANCH 427 428
ATOM    428  CB  THR A   1       7.299  -7.315  26.079  0.00  0.00    +0.181 C 
ATOM    429  CG2 THR A   1       5.974  -7.888  26.533  0.00  0.00    +0.038 C 
ATOM    430  OG1 THR A   1       8.288  -8.359  25.933  0.00  0.00    -0.221 OA
ENDBRANCH 427 428
BRANCH 427 432
ATOM    431  C   UNK A   0       5.368  -6.963  23.184  0.00  0.00    +0.264 C 
ATOM    432  N   THR A   1       6.537  -7.317  23.717  0.00  0.00    -0.194 NA
ATOM    433  O   UNK A   0       4.771  -5.915  23.485  0.00  0.00    -0.271 OA
BRANCH 431 434
ATOM    434  C   UNK A   0       4.823  -7.875  22.110  0.00  0.00    +0.201 C 
BRANCH 434 437
ATOM    435  C   UNK A   0       4.784 -10.048  23.227  0.00  0.00    +0.242 C 
ATOM    436  O   UNK A   0       4.151  -9.623  24.214  0.00  0.00    -0.273 OA
ATOM    437  N   UNK A   0       5.174  -9.285  22.212  0.00  0.00    -0.195 NA
BRANCH 435 438
ATOM    438  C   UNK A   0       5.148 -11.526  23.116  0.00  0.00    +0.087 C 
BRANCH 438 439
ATOM    439  C   UNK A   0       4.626 -12.390  24.273  0.00  0.00    +0.010 C 
BRANCH 439 440
ATOM    440  C   UNK A   0       5.000 -13.823  24.387  0.00  0.00    +0.000 C 
ATOM    441  C   UNK A   0       6.182 -14.281  24.905  0.00  0.00    +0.000 C 
BRANCH 440 442
ATOM    442  C   UNK A   0       4.501 -14.422  25.629  0.00  0.00    +0.000 C 
BRANCH 442 443
ATOM    443  C   UNK A   0       3.732 -14.719  24.574  0.00  0.00    +0.000 C 
ATOM    444  C   UNK A   0       4.913 -13.898  24.137  0.00  0.00    +0.000 C 
ATOM    445  C   UNK A   0       4.366 -14.567  23.272  0.00  0.00    +0.000 C 
ENDBRANCH 442 443
ENDBRANCH 440 442
ENDBRANCH 439 440
ENDBRANCH 438 439
ENDBRANCH 435 438
ENDBRANCH 434 437
ENDBRANCH 431 434
ENDBRANCH 427 432
ENDBRANCH 424 427
ENDBRANCH 423 425
BRANCH 423 446
ATOM    446  CB  ILE A   2      10.903  -3.298  24.836  0.00  0.00    +0.029 C 
ATOM    447  CG2 ILE A   2      10.476  -2.800  23.437  0.00  0.00    +0.002 C 
BRANCH 446 448
ATOM    448  CG1 ILE A   2      10.209  -2.499  25.952  0.00  0.00    +0.002 C 
ATOM    449  CD1 ILE A   2      10.828  -1.062  26.111  0.00  0.00    +0.000 C 
ENDBRANCH 446 448
ENDBRANCH 423 446
ENDBRANCH 420 423
ENDBRANCH 418 422
ENDBRANCH 415 418
ENDBRANCH 414 417
BRANCH 414 450
ATOM    450  CB  LYS A   4      16.244  -7.248  25.749  0.00  0.00    +0.031 C 
BRANCH 450 451
ATOM    451  CG  LYS A   4      17.738  -7.258  26.099  0.00  0.00    +0.004 C 
BRANCH 451 452
ATOM    452  CD  LYS A   4      18.629  -7.001  24.883  0.00  0.00    +0.021 C 
BRANCH 452 453
ATOM    453  CE  LYS A   4      20.070  -6.862  25.343  0.00  0.00    +0.109 C 
ATOM    454  NZ  LYS A   4      21.013  -6.767  24.200  0.00  0.00    -0.131 NA
ENDBRANCH 452 453
ENDBRANCH 451 452
ENDBRANCH 450 451
ENDBRANCH 414 450
ENDBRANCH 411 414
ENDBRANCH 410 413
BRANCH 410 455
ATOM    455  CB  SER A   5      14.517  -2.705  27.734  0.00  0.00    +0.213 C 
ATOM    456  OG  SER A   5      14.376  -1.565  28.565  0.00  0.00    -0.218 OA
ENDBRANCH 410 455
ENDBRANCH 407 410
ENDBRANCH 406 409
ENDBRANCH 403 406
ENDBRANCH 402 405
BRANCH 402 457
ATOM    457  CB  THR A   7      13.982  -9.394  31.504  0.00  0.00    +0.181 C 
ATOM    458  CG2 THR A   7      12.641  -9.947  30.980  0.00  0.00    +0.038 C 
ATOM    459  OG1 THR A   7      14.942  -9.300  30.461  0.00  0.00    -0.221 OA
ENDBRANCH 402 457
ENDBRANCH 399 402
ENDBRANCH 398 401
BRANCH 398 460
ATOM    460  CB  LYS A   8      18.106  -5.668  31.673  0.00  0.00    +0.031 C 
BRANCH 460 461
ATOM    461  CG  LYS A   8      19.580  -5.545  32.036  0.00  0.00    +0.004 C 
BRANCH 461 462
ATOM    462  CD  LYS A   8      20.418  -5.049  30.849  0.00  0.00    +0.021 C 
BRANCH 462 463
ATOM    463  CE  LYS A   8      20.782  -3.581  30.948  0.00  0.00    +0.109 C 
ATOM    464  NZ  LYS A   8      21.782  -3.310  32.020  0.00  0.00    -0.131 NA
ENDBRANCH 462 463
ENDBRANCH 461 462
ENDBRANCH 460 461
ENDBRANCH 398 460
ENDBRANCH 395 398
ENDBRANCH 393 397
ENDBRANCH 390 393
ENDBRANCH 389 392
BRANCH 389 465
ATOM    465  CB  PHE A  10      12.479  -6.707  36.206  0.00  0.00    +0.057 C 
BRANCH 465 466
ATOM    466  CG  PHE A  10      11.731  -7.539  37.221  0.00  0.00    -0.020 A 
ATOM    467  CD2 PHE A  10      11.236  -6.967  38.391  0.00  0.00    -0.004 A 
ATOM    468  CE2 PHE A  10      10.494  -7.726  39.298  0.00  0.00    -0.000 A 
ATOM    469  CZ  PHE A  10      10.224  -9.046  39.033  0.00  0.00    -0.000 A 
ATOM    470  CE1 PHE A  10      10.688  -9.624  37.874  0.00  0.00    -0.000 A 
ATOM    471  CD1 PHE A  10      11.433  -8.868  36.964  0.00  0.00    -0.004 A 
ENDBRANCH 465 466
ENDBRANCH 389 465
ENDBRANCH 386 389
ENDBRANCH 385 388
BRANCH 385 472
ATOM    472  CB  MET A  11      17.264  -8.893  36.855  0.00  0.00    +0.043 C 
BRANCH 472 473
ATOM    473  CG  MET A  11      16.451 -10.085  36.463  0.00  0.00    +0.060 C 
BRANCH 473 474
ATOM    474  SD  MET A  11      17.340 -11.323  35.480  0.00  0.00    -0.139 S 
ATOM    475  CE  MET A  11      17.694 -10.376  33.906  0.00  0.00    +0.069 C 
ENDBRANCH 473 474
ENDBRANCH 472 473
ENDBRANCH 385 472
ENDBRANCH 382 385
ENDBRANCH 381 384
BRANCH 381 476
ATOM    476  CB  GLU A  12      18.816  -3.594  37.778  0.00  0.00    +0.043 C 
BRANCH 476 477
ATOM    477  CG  GLU A  12      19.907  -4.004  36.793  0.00  0.00    +0.116 C 
BRANCH 477 478
ATOM    478  CD  GLU A  12      20.414  -2.909  35.868  0.00  0.00    +0.365 C 
ATOM    479  OE2 GLU A  12      19.961  -1.747  35.996  0.00  0.00    -0.246 OA
ATOM    480  OE1 GLU A  12      21.273  -3.219  35.010  0.00  0.00    -0.246 OA
ENDBRANCH 477 478
ENDBRANCH 476 477
ENDBRANCH 381 476
ENDBRANCH 378 381
ENDBRANCH 376 380
ENDBRANCH 373 376
ENDBRANCH 372 375
BRANCH 372 481
ATOM    481  CB  LEU A  14      15.076  -8.386  41.835  0.00  0.00    +0.031 C 
BRANCH 481 482
ATOM    482  CG  LEU A  14      13.708  -8.625  41.191  0.00  0.00    +0.002 C 
ATOM    483  CD2 LEU A  14      12.585  -8.698  42.253  0.00  0.00    +0.000 C 
ATOM    484  CD1 LEU A  14      13.715  -9.902  40.330  0.00  0.00    +0.000 C 
ENDBRANCH 481 482
ENDBRANCH 372 481
ENDBRANCH 369 372
ENDBRANCH 368 371
BRANCH 368 485
ATOM    485  CB  GLN A  15      20.096  -6.565  42.373  0.00  0.00    +0.041 C 
BRANCH 485 486
ATOM    486  CG  GLN A  15      20.578  -7.853  41.711  0.00  0.00    +0.091 C 
BRANCH 486 487
ATOM    487  CD  GLN A  15      21.714  -8.483  42.486  0.00  0.00    +0.261 C 
ATOM    488  OE1 GLN A  15      21.514  -9.135  43.520  0.00  0.00    -0.272 OA
ATOM    489  NE2 GLN A  15      22.937  -8.296  42.005  0.00  0.00    -0.088 NA
ENDBRANCH 486 487
ENDBRANCH 485 486
ENDBRANCH 368 485
ENDBRANCH 365 368
ENDBRANCH 363 367
ENDBRANCH 360 363
ENDBRANCH 359 362
ENDBRANCH 356 359
ENDBRANCH 354 358
ENDBRANCH 351 354
ENDBRANCH 350 353
BRANCH 350 490
ATOM    490  CB  ASP A  19       9.239  -8.261  46.221  0.00  0.00    +0.145 C 
BRANCH 490 491
ATOM    491  CG  ASP A  19       7.813  -7.932  46.105  0.00  0.00    +0.367 C 
ATOM    492  OD2 ASP A  19       7.553  -6.743  46.139  0.00  0.00    -0.246 OA
ATOM    493  OD1 ASP A  19       6.973  -8.835  45.959  0.00  0.00    -0.246 OA
ENDBRANCH 490 491
ENDBRANCH 350 490
ENDBRANCH 347 350
ENDBRANCH 346 348
BRANCH 346 494
ATOM    494  CB  ILE A  20       8.799 -11.740  42.409  0.00  0.00    +0.029 C 
ATOM    495  CG2 ILE A  20       7.920 -12.395  41.369  0.00  0.00    +0.002 C 
BRANCH 494 496
ATOM    496  CG1 ILE A  20      10.249 -12.194  42.285  0.00  0.00    +0.002 C 
ATOM    497  CD1 ILE A  20      10.465 -13.658  42.555  0.00  0.00    +0.000 C 
ENDBRANCH 494 496
ENDBRANCH 346 494
ENDBRANCH 343 346
ENDBRANCH 342 344
BRANCH 342 498
ATOM    498  CB  SER A  21       4.411  -8.665  43.878  0.00  0.00    +0.213 C 
ATOM    499  OG  SER A  21       4.782  -7.498  44.546  0.00  0.00    -0.218 OA
ENDBRANCH 342 498
ENDBRANCH 339 342
ENDBRANCH 338 340
BRANCH 338 500
ATOM    500  CB  MET A  22       7.451  -4.667  41.622  0.00  0.00    +0.043 C 
BRANCH 500 501
ATOM    501  CG  MET A  22       7.036  -4.309  43.037  0.00  0.00    +0.060 C 
BRANCH 501 502
ATOM    502  SD  MET A  22       8.378  -3.659  44.024  0.00  0.00    -0.139 S 
ATOM    503  CE  MET A  22       8.886  -2.323  43.003  0.00  0.00    +0.069 C 
ENDBRANCH 501 502
ENDBRANCH 500 501
ENDBRANCH 338 500
ENDBRANCH 335 338
ENDBRANCH 334 336
BRANCH 334 504
ATOM    504  CB  ILE A  23       6.980  -8.917  37.450  0.00  0.00    +0.029 C 
ATOM    505  CG2 ILE A  23       5.521  -9.374  37.631  0.00  0.00    +0.002 C 
BRANCH 504 506
ATOM    506  CG1 ILE A  23       7.588  -9.350  36.106  0.00  0.00    +0.002 C 
ATOM    507  CD1 ILE A  23       7.748 -10.921  35.949  0.00  0.00    +0.000 C 
ENDBRANCH 504 506
ENDBRANCH 334 504
ENDBRANCH 331 334
ENDBRANCH 330 332
ENDBRANCH 327 330
ENDBRANCH 326 328
BRANCH 326 508
ATOM    508  CB  GLN A  25       6.536  -1.664  37.750  0.00  0.00    +0.041 C 
BRANCH 508 509
ATOM    509  CG  GLN A  25       5.384  -1.500  38.734  0.00  0.00    +0.091 C 
BRANCH 509 510
ATOM    510  CD  GLN A  25       5.831  -0.863  40.007  0.00  0.00    +0.261 C 
ATOM    511  NE2 GLN A  25       5.629  -1.565  41.108  0.00  0.00    -0.088 NA
ATOM    512  OE1 GLN A  25       6.342   0.262  40.016  0.00  0.00    -0.272 OA
ENDBRANCH 509 510
ENDBRANCH 508 509
ENDBRANCH 326 508
ENDBRANCH 323 326
ENDBRANCH 322 324
BRANCH 322 513
ATOM    513  CB  PHE A  26       9.918  -4.314  34.700  0.00  0.00    +0.057 C 
BRANCH 513 514
ATOM    514  CG  PHE A  26      10.397  -3.699  35.998  0.00  0.00    -0.020 A 
ATOM    515  CD2 PHE A  26       9.834  -4.074  37.214  0.00  0.00    -0.004 A 
ATOM    516  CE2 PHE A  26      10.252  -3.487  38.408  0.00  0.00    -0.000 A 
ATOM    517  CZ  PHE A  26      11.204  -2.491  38.384  0.00  0.00    -0.000 A 
ATOM    518  CE1 PHE A  26      11.763  -2.097  37.189  0.00  0.00    -0.000 A 
ATOM    519  CD1 PHE A  26      11.337  -2.675  35.994  0.00  0.00    -0.004 A 
ENDBRANCH 513 514
ENDBRANCH 322 513
ENDBRANCH 319 322
ENDBRANCH 318 320
ENDBRANCH 315 318
ENDBRANCH 314 316
BRANCH 314 520
ATOM    520  CB  VAL A  28       8.834  -8.472  31.566  0.00  0.00    +0.029 C 
ATOM    521  CG2 VAL A  28       9.472  -8.080  32.907  0.00  0.00    +0.002 C 
ATOM    522  CG1 VAL A  28       9.520  -7.756  30.400  0.00  0.00    +0.002 C 
ENDBRANCH 314 520
ENDBRANCH 311 314
ENDBRANCH 310 312
ENDBRANCH 307 310
ENDBRANCH 306 309
BRANCH 306 523
ATOM    523  CB  PHE A  30       4.052 -12.488  29.879  0.00  0.00    +0.057 C 
BRANCH 523 524
ATOM    524  CG  PHE A  30       4.089 -13.893  29.304  0.00  0.00    -0.020 A 
ATOM    525  CD2 PHE A  30       2.914 -14.617  29.116  0.00  0.00    -0.004 A 
ATOM    526  CE2 PHE A  30       2.947 -15.915  28.602  0.00  0.00    -0.000 A 
ATOM    527  CZ  PHE A  30       4.156 -16.506  28.294  0.00  0.00    -0.000 A 
ATOM    528  CE1 PHE A  30       5.337 -15.817  28.508  0.00  0.00    -0.000 A 
ATOM    529  CD1 PHE A  30       5.302 -14.507  29.006  0.00  0.00    -0.004 A 
ENDBRANCH 523 524
ENDBRANCH 306 523
ENDBRANCH 303 306
ENDBRANCH 302 305
BRANCH 302 530
ATOM    530  CB  TYR A  31       8.357 -13.971  32.562  0.00  0.00    +0.057 C 
BRANCH 530 531
ATOM    531  CG  TYR A  31       8.685 -13.622  31.130  0.00  0.00    -0.020 A 
ATOM    532  CD2 TYR A  31       8.672 -12.300  30.695  0.00  0.00    -0.001 A 
ATOM    533  CE2 TYR A  31       8.910 -11.974  29.362  0.00  0.00    +0.042 A 
ATOM    534  CZ  TYR A  31       9.160 -12.979  28.440  0.00  0.00    +0.196 A 
ATOM    535  CE1 TYR A  31       9.177 -14.302  28.849  0.00  0.00    +0.042 A 
ATOM    536  OH  TYR A  31       9.382 -12.651  27.124  0.00  0.00    -0.287 OA
ATOM    537  CD1 TYR A  31       8.919 -14.617  30.185  0.00  0.00    -0.001 A 
ENDBRANCH 530 531
ENDBRANCH 302 530
ENDBRANCH 299 302
ENDBRANCH 298 300
BRANCH 298 538
ATOM    538  CB  SER A  32       4.483 -13.495  36.947  0.00  0.00    +0.213 C 
ATOM    539  OG  SER A  32       3.278 -13.224  36.258  0.00  0.00    -0.218 OA
ENDBRANCH 298 538
ENDBRANCH 295 298
ENDBRANCH 293 297
ENDBRANCH 290 293
ENDBRANCH 289 292
BRANCH 289 540
ATOM    540  CB  TYR A  34       7.744 -19.431  34.632  0.00  0.00    +0.057 C 
BRANCH 540 541
ATOM    541  CG  TYR A  34       7.554 -19.703  33.157  0.00  0.00    -0.020 A 
ATOM    542  CD2 TYR A  34       7.606 -21.005  32.652  0.00  0.00    -0.001 A 
ATOM    543  CE2 TYR A  34       7.348 -21.270  31.299  0.00  0.00    +0.042 A 
ATOM    544  CZ  TYR A  34       7.071 -20.217  30.437  0.00  0.00    +0.196 A 
ATOM    545  CE1 TYR A  34       6.984 -18.921  30.931  0.00  0.00    +0.042 A 
ATOM    546  OH  TYR A  34       6.802 -20.442  29.105  0.00  0.00    -0.287 OA
ATOM    547  CD1 TYR A  34       7.254 -18.671  32.275  0.00  0.00    -0.001 A 
ENDBRANCH 540 541
ENDBRANCH 289 540
ENDBRANCH 286 289
ENDBRANCH 285 287
BRANCH 285 548
ATOM    548  CB  LEU A  35       5.087 -17.979  39.823  0.00  0.00    +0.031 C 
BRANCH 548 549
ATOM    549  CG  LEU A  35       5.888 -16.678  39.915  0.00  0.00    +0.002 C 
ATOM    550  CD2 LEU A  35       7.062 -16.821  40.889  0.00  0.00    +0.000 C 
ATOM    551  CD1 LEU A  35       4.972 -15.501  40.344  0.00  0.00    +0.000 C 
ENDBRANCH 548 549
ENDBRANCH 285 548
ENDBRANCH 282 285
ENDBRANCH 281 284
BRANCH 281 552
ATOM    552  CB  VAL A  36       1.543 -21.160  38.950  0.00  0.00    +0.029 C 
ATOM    553  CG2 VAL A  36       1.496 -20.235  40.180  0.00  0.00    +0.002 C 
ATOM    554  CG1 VAL A  36       1.013 -20.426  37.704  0.00  0.00    +0.002 C 
ENDBRANCH 281 552
ENDBRANCH   1 281
TORSDOF 261
REMARK  Name = /Users/mlugowska/PhD/ML_residence_time_prediction/protein_files/5NYI_protein.pdb
REMARK  798 active torsions:
REMARK  status: ('A' for Active; 'I' for Inactive)
REMARK    1  A    between atoms: _2  and  _3
REMARK    2  A    between atoms: _2  and  _5
REMARK    3  A    between atoms: _5  and  _6
REMARK    4  A    between atoms: _6  and  _7
REMARK    5  A    between atoms: _10  and  _11
REMARK    6  A    between atoms: _11  and  _12
REMARK    7  A    between atoms: _11  and  _14
REMARK    8  A    between atoms: _17  and  _18
REMARK    9  A    between atoms: _18  and  _19
REMARK   10  A    between atoms: _18  and  _21
REMARK   11  A    between atoms: _21  and  _22
REMARK   12  A    between atoms: _22  and  _23
REMARK   13  A    between atoms: _26  and  _27
REMARK   14  A    between atoms: _27  and  _28
REMARK   15  A    between atoms: _27  and  _30
REMARK   16  A    between atoms: _33  and  _34
REMARK   17  A    between atoms: _34  and  _35
REMARK   18  A    between atoms: _34  and  _37
REMARK   19  A    between atoms: _37  and  _38
REMARK   20  A    between atoms: _44  and  _45
REMARK   21  A    between atoms: _45  and  _46
REMARK   22  A    between atoms: _49  and  _50
REMARK   23  A    between atoms: _50  and  _51
REMARK   24  A    between atoms: _50  and  _53
REMARK   25  A    between atoms: _53  and  _54
REMARK   26  A    between atoms: _60  and  _61
REMARK   27  A    between atoms: _61  and  _62
REMARK   28  A    between atoms: _61  and  _64
REMARK   29  A    between atoms: _64  and  _65
REMARK   30  A    between atoms: _65  and  _66
REMARK   31  A    between atoms: _69  and  _70
REMARK   32  A    between atoms: _70  and  _71
REMARK   33  A    between atoms: _74  and  _75
REMARK   34  A    between atoms: _75  and  _76
REMARK   35  A    between atoms: _75  and  _78
REMARK   36  A    between atoms: _78  and  _79
REMARK   37  A    between atoms: _79  and  _80
REMARK   38  A    between atoms: _83  and  _84
REMARK   39  A    between atoms: _84  and  _86
REMARK   40  A    between atoms: _88  and  _90
REMARK   41  A    between atoms: _96  and  _97
REMARK   42  A    between atoms: _97  and  _98
REMARK   43  A    between atoms: _101  and  _102
REMARK   44  A    between atoms: _102  and  _103
REMARK   45  A    between atoms: _102  and  _105
REMARK   46  A    between atoms: _105  and  _106
REMARK   47  A    between atoms: _106  and  _107
REMARK   48  A    between atoms: _110  and  _111
REMARK   49  A    between atoms: _111  and  _112
REMARK   50  A    between atoms: _111  and  _114
REMARK   51  A    between atoms: _114  and  _115
REMARK   52  A    between atoms: _118  and  _119
REMARK   53  A    between atoms: _119  and  _120
REMARK   54  A    between atoms: _119  and  _122
REMARK   55  A    between atoms: _122  and  _123
REMARK   56  A    between atoms: _123  and  _124
REMARK   57  A    between atoms: _126  and  _127
REMARK   58  A    between atoms: _127  and  _128
REMARK   59  A    between atoms: _127  and  _130
REMARK   60  A    between atoms: _132  and  _133
REMARK   61  A    between atoms: _133  and  _134
REMARK   62  A    between atoms: _133  and  _136
REMARK   63  A    between atoms: _136  and  _137
REMARK   64  A    between atoms: _140  and  _141
REMARK   65  A    between atoms: _141  and  _142
REMARK   66  A    between atoms: _141  and  _144
REMARK   67  A    between atoms: _144  and  _145
REMARK   68  A    between atoms: _148  and  _149
REMARK   69  A    between atoms: _149  and  _150
REMARK   70  A    between atoms: _149  and  _152
REMARK   71  A    between atoms: _152  and  _153
REMARK   72  A    between atoms: _156  and  _157
REMARK   73  A    between atoms: _157  and  _158
REMARK   74  A    between atoms: _157  and  _160
REMARK   75  A    between atoms: _160  and  _161
REMARK   76  A    between atoms: _164  and  _165
REMARK   77  A    between atoms: _165  and  _166
REMARK   78  A    between atoms: _165  and  _168
REMARK   79  A    between atoms: _171  and  _172
REMARK   80  A    between atoms: _172  and  _173
REMARK   81  A    between atoms: _172  and  _175
REMARK   82  A    between atoms: _175  and  _176
REMARK   83  A    between atoms: _182  and  _183
REMARK   84  A    between atoms: _183  and  _184
REMARK   85  A    between atoms: _183  and  _186
REMARK   86  A    between atoms: _186  and  _187
REMARK   87  A    between atoms: _194  and  _195
REMARK   88  A    between atoms: _195  and  _196
REMARK   89  A    between atoms: _195  and  _198
REMARK   90  A    between atoms: _200  and  _201
REMARK   91  A    between atoms: _201  and  _202
REMARK   92  A    between atoms: _201  and  _204
REMARK   93  A    between atoms: _204  and  _205
REMARK   94  A    between atoms: _208  and  _209
REMARK   95  A    between atoms: _209  and  _210
REMARK   96  A    between atoms: _209  and  _212
REMARK   97  A    between atoms: _212  and  _213
REMARK   98  A    between atoms: _213  and  _214
REMARK   99  A    between atoms: _214  and  _215
REMARK  100  A    between atoms: _217  and  _218
REMARK  101  A    between atoms: _218  and  _219
REMARK  102  A    between atoms: _218  and  _221
REMARK  103  A    between atoms: _221  and  _222
REMARK  104  A    between atoms: _222  and  _223
REMARK  105  A    between atoms: _226  and  _227
REMARK  106  A    between atoms: _227  and  _228
REMARK  107  A    between atoms: _227  and  _230
REMARK  108  A    between atoms: _230  and  _231
REMARK  109  A    between atoms: _234  and  _235
REMARK  110  A    between atoms: _235  and  _236
REMARK  111  A    between atoms: _235  and  _238
REMARK  112  A    between atoms: _238  and  _239
REMARK  113  A    between atoms: _245  and  _246
REMARK  114  A    between atoms: _246  and  _247
REMARK  115  A    between atoms: _246  and  _249
REMARK  116  A    between atoms: _249  and  _250
REMARK  117  A    between atoms: _253  and  _254
REMARK  118  A    between atoms: _254  and  _255
REMARK  119  A    between atoms: _254  and  _257
REMARK  120  A    between atoms: _257  and  _258
REMARK  121  A    between atoms: _258  and  _259
REMARK  122  A    between atoms: _259  and  _260
REMARK  123  A    between atoms: _264  and  _265
REMARK  124  A    between atoms: _265  and  _266
REMARK  125  A    between atoms: _265  and  _268
REMARK  126  A    between atoms: _268  and  _269
REMARK  127  A    between atoms: _269  and  _270
REMARK  128  A    between atoms: _273  and  _274
REMARK  129  A    between atoms: _274  and  _275
REMARK  130  A    between atoms: _274  and  _277
REMARK  131  A    between atoms: _277  and  _278
REMARK  132  A    between atoms: _281  and  _282
REMARK  133  A    between atoms: _282  and  _283
REMARK  134  A    between atoms: _282  and  _285
REMARK  135  A    between atoms: _285  and  _286
REMARK  136  A    between atoms: _289  and  _290
REMARK  137  A    between atoms: _290  and  _295
REMARK  138  A    between atoms: _298  and  _299
REMARK  139  A    between atoms: _299  and  _300
REMARK  140  A    between atoms: _299  and  _302
REMARK  141  A    between atoms: _302  and  _303
REMARK  142  A    between atoms: _306  and  _307
REMARK  143  A    between atoms: _307  and  _308
REMARK  144  A    between atoms: _307  and  _310
REMARK  145  A    between atoms: _312  and  _313
REMARK  146  A    between atoms: _313  and  _314
REMARK  147  A    between atoms: _313  and  _316
REMARK  148  A    between atoms: _318  and  _319
REMARK  149  A    between atoms: _319  and  _320
REMARK  150  A    between atoms: _319  and  _322
REMARK  151  A    between atoms: _322  and  _323
REMARK  152  A    between atoms: _326  and  _327
REMARK  153  A    between atoms: _327  and  _328
REMARK  154  A    between atoms: _331  and  _332
REMARK  155  A    between atoms: _332  and  _333
REMARK  156  A    between atoms: _332  and  _335
REMARK  157  A    between atoms: _335  and  _336
REMARK  158  A    between atoms: _339  and  _340
REMARK  159  A    between atoms: _340  and  _341
REMARK  160  A    between atoms: _340  and  _343
REMARK  161  A    between atoms: _343  and  _344
REMARK  162  A    between atoms: _347  and  _348
REMARK  163  A    between atoms: _348  and  _349
REMARK  164  A    between atoms: _348  and  _351
REMARK  165  A    between atoms: _351  and  _352
REMARK  166  A    between atoms: _352  and  _353
REMARK  167  A    between atoms: _353  and  _354
REMARK  168  A    between atoms: _356  and  _357
REMARK  169  A    between atoms: _357  and  _358
REMARK  170  A    between atoms: _357  and  _360
REMARK  171  A    between atoms: _360  and  _361
REMARK  172  A    between atoms: _364  and  _365
REMARK  173  A    between atoms: _365  and  _366
REMARK  174  A    between atoms: _365  and  _368
REMARK  175  A    between atoms: _368  and  _369
REMARK  176  A    between atoms: _369  and  _370
REMARK  177  A    between atoms: _370  and  _371
REMARK  178  A    between atoms: _375  and  _376
REMARK  179  A    between atoms: _376  and  _377
REMARK  180  A    between atoms: _376  and  _379
REMARK  181  A    between atoms: _379  and  _380
REMARK  182  A    between atoms: _387  and  _388
REMARK  183  A    between atoms: _388  and  _389
REMARK  184  A    between atoms: _388  and  _391
REMARK  185  A    between atoms: _391  and  _392
REMARK  186  A    between atoms: _392  and  _393
REMARK  187  A    between atoms: _396  and  _397
REMARK  188  A    between atoms: _397  and  _398
REMARK  189  A    between atoms: _397  and  _400
REMARK  190  A    between atoms: _403  and  _404
REMARK  191  A    between atoms: _404  and  _405
REMARK  192  A    between atoms: _404  and  _407
REMARK  193  A    between atoms: _407  and  _408
REMARK  194  A    between atoms: _411  and  _412
REMARK  195  A    between atoms: _412  and  _413
REMARK  196  A    between atoms: _412  and  _415
REMARK  197  A    between atoms: _418  and  _419
REMARK  198  A    between atoms: _419  and  _420
REMARK  199  A    between atoms: _419  and  _422
REMARK  200  A    between atoms: _422  and  _423
REMARK  201  A    between atoms: _427  and  _428
REMARK  202  A    between atoms: _433  and  _434
REMARK  203  A    between atoms: _434  and  _435
REMARK  204  A    between atoms: _434  and  _437
REMARK  205  A    between atoms: _439  and  _440
REMARK  206  A    between atoms: _440  and  _441
REMARK  207  A    between atoms: _440  and  _443
REMARK  208  A    between atoms: _443  and  _444
REMARK  209  A    between atoms: _444  and  _445
REMARK  210  A    between atoms: _445  and  _446
REMARK  211  A    between atoms: _448  and  _449
REMARK  212  A    between atoms: _449  and  _450
REMARK  213  A    between atoms: _449  and  _452
REMARK  214  A    between atoms: _452  and  _453
REMARK  215  A    between atoms: _456  and  _457
REMARK  216  A    between atoms: _457  and  _458
REMARK  217  A    between atoms: _457  and  _460
REMARK  218  A    between atoms: _460  and  _461
REMARK  219  A    between atoms: _464  and  _465
REMARK  220  A    between atoms: _465  and  _466
REMARK  221  A    between atoms: _465  and  _468
REMARK  222  A    between atoms: _470  and  _471
REMARK  223  A    between atoms: _471  and  _472
REMARK  224  A    between atoms: _474  and  _475
REMARK  225  A    between atoms: _475  and  _476
REMARK  226  A    between atoms: _475  and  _478
REMARK  227  A    between atoms: _478  and  _479
REMARK  228  A    between atoms: _479  and  _480
REMARK  229  A    between atoms: _480  and  _481
REMARK  230  A    between atoms: _483  and  _484
REMARK  231  A    between atoms: _484  and  _485
REMARK  232  A    between atoms: _484  and  _487
REMARK  233  A    between atoms: _487  and  _488
REMARK  234  A    between atoms: _488  and  _489
REMARK  235  A    between atoms: _492  and  _493
REMARK  236  A    between atoms: _493  and  _494
REMARK  237  A    between atoms: _493  and  _496
REMARK  238  A    between atoms: _496  and  _497
REMARK  239  A    between atoms: _500  and  _501
REMARK  240  A    between atoms: _501  and  _502
REMARK  241  A    between atoms: _501  and  _504
REMARK  242  A    between atoms: _504  and  _505
REMARK  243  A    between atoms: _510  and  _511
REMARK  244  A    between atoms: _511  and  _512
REMARK  245  A    between atoms: _511  and  _514
REMARK  246  A    between atoms: _514  and  _515
REMARK  247  A    between atoms: _518  and  _519
REMARK  248  A    between atoms: _519  and  _520
REMARK  249  A    between atoms: _519  and  _522
REMARK  250  A    between atoms: _522  and  _523
REMARK  251  A    between atoms: _526  and  _527
REMARK  252  A    between atoms: _527  and  _528
REMARK  253  A    between atoms: _527  and  _530
REMARK  254  A    between atoms: _530  and  _531
REMARK  255  A    between atoms: _534  and  _535
REMARK  256  A    between atoms: _535  and  _536
REMARK  257  A    between atoms: _535  and  _538
REMARK  258  A    between atoms: _538  and  _539
REMARK  259  A    between atoms: _543  and  _544
REMARK  260  A    between atoms: _549  and  _550
REMARK  261  A    between atoms: _550  and  _551
REMARK  262  A    between atoms: _550  and  _553
REMARK  263  A    between atoms: _553  and  _554
REMARK  264  A    between atoms: _557  and  _558
REMARK  265  A    between atoms: _558  and  _559
REMARK  266  A    between atoms: _558  and  _561
REMARK  267  A    between atoms: _561  and  _562
REMARK  268  A    between atoms: _562  and  _563
REMARK  269  A    between atoms: _563  and  _564
REMARK  270  A    between atoms: _566  and  _567
REMARK  271  A    between atoms: _567  and  _568
REMARK  272  A    between atoms: _567  and  _570
REMARK  273  A    between atoms: _570  and  _571
REMARK  274  A    between atoms: _571  and  _572
REMARK  275  A    between atoms: _575  and  _576
REMARK  276  A    between atoms: _576  and  _577
REMARK  277  A    between atoms: _576  and  _579
REMARK  278  A    between atoms: _579  and  _580
REMARK  279  A    between atoms: _583  and  _584
REMARK  280  A    between atoms: _584  and  _585
REMARK  281  A    between atoms: _584  and  _587
REMARK  282  A    between atoms: _587  and  _588
REMARK  283  A    between atoms: _588  and  _589
REMARK  284  A    between atoms: _589  and  _590
REMARK  285  A    between atoms: _594  and  _595
REMARK  286  A    between atoms: _595  and  _596
REMARK  287  A    between atoms: _595  and  _598
REMARK  288  A    between atoms: _601  and  _602
REMARK  289  A    between atoms: _602  and  _603
REMARK  290  A    between atoms: _602  and  _605
REMARK  291  A    between atoms: _605  and  _606
REMARK  292  A    between atoms: _609  and  _610
REMARK  293  A    between atoms: _610  and  _611
REMARK  294  A    between atoms: _610  and  _613
REMARK  295  A    between atoms: _616  and  _617
REMARK  296  A    between atoms: _617  and  _618
REMARK  297  A    between atoms: _617  and  _620
REMARK  298  A    between atoms: _620  and  _621
REMARK  299  A    between atoms: _624  and  _625
REMARK  300  A    between atoms: _625  and  _626
REMARK  301  A    between atoms: _625  and  _628
REMARK  302  A    between atoms: _631  and  _632
REMARK  303  A    between atoms: _632  and  _633
REMARK  304  A    between atoms: _632  and  _635
REMARK  305  A    between atoms: _635  and  _636
REMARK  306  A    between atoms: _639  and  _640
REMARK  307  A    between atoms: _640  and  _641
REMARK  308  A    between atoms: _640  and  _643
REMARK  309  A    between atoms: _646  and  _647
REMARK  310  A    between atoms: _647  and  _648
REMARK  311  A    between atoms: _650  and  _651
REMARK  312  A    between atoms: _651  and  _652
REMARK  313  A    between atoms: _651  and  _654
REMARK  314  A    between atoms: _654  and  _655
REMARK  315  A    between atoms: _658  and  _659
REMARK  316  A    between atoms: _659  and  _660
REMARK  317  A    between atoms: _662  and  _663
REMARK  318  A    between atoms: _663  and  _664
REMARK  319  A    between atoms: _663  and  _666
REMARK  320  A    between atoms: _666  and  _667
REMARK  321  A    between atoms: _667  and  _668
REMARK  322  A    between atoms: _670  and  _671
REMARK  323  A    between atoms: _671  and  _672
REMARK  324  A    between atoms: _671  and  _674
REMARK  325  A    between atoms: _677  and  _678
REMARK  326  A    between atoms: _678  and  _679
REMARK  327  A    between atoms: _678  and  _681
REMARK  328  A    between atoms: _681  and  _682
REMARK  329  A    between atoms: _682  and  _683
REMARK  330  A    between atoms: _683  and  _684
REMARK  331  A    between atoms: _686  and  _687
REMARK  332  A    between atoms: _687  and  _688
REMARK  333  A    between atoms: _691  and  _692
REMARK  334  A    between atoms: _692  and  _693
REMARK  335  A    between atoms: _692  and  _695
REMARK  336  A    between atoms: _695  and  _696
REMARK  337  A    between atoms: _699  and  _700
REMARK  338  A    between atoms: _700  and  _701
REMARK  339  A    between atoms: _700  and  _703
REMARK  340  A    between atoms: _703  and  _704
REMARK  341  A    between atoms: _707  and  _708
REMARK  342  A    between atoms: _708  and  _709
REMARK  343  A    between atoms: _708  and  _711
REMARK  344  A    between atoms: _711  and  _712
REMARK  345  A    between atoms: _715  and  _716
REMARK  346  A    between atoms: _716  and  _717
REMARK  347  A    between atoms: _716  and  _719
REMARK  348  A    between atoms: _719  and  _720
REMARK  349  A    between atoms: _723  and  _724
REMARK  350  A    between atoms: _724  and  _725
REMARK  351  A    between atoms: _724  and  _727
REMARK  352  A    between atoms: _727  and  _728
REMARK  353  A    between atoms: _733  and  _734
REMARK  354  A    between atoms: _733  and  _736
REMARK  355  A    between atoms: _736  and  _739
REMARK  356  A    between atoms: _739  and  _741
REMARK  357  A    between atoms: _741  and  _742
REMARK  358  A    between atoms: _744  and  _745
REMARK  359  A    between atoms: _745  and  _746
REMARK  360  A    between atoms: _748  and  _749
REMARK  361  A    between atoms: _749  and  _750
REMARK  362  A    between atoms: _749  and  _752
REMARK  363  A    between atoms: _755  and  _756
REMARK  364  A    between atoms: _756  and  _757
REMARK  365  A    between atoms: _756  and  _759
REMARK  366  A    between atoms: _759  and  _760
REMARK  367  A    between atoms: _763  and  _764
REMARK  368  A    between atoms: _764  and  _765
REMARK  369  A    between atoms: _768  and  _769
REMARK  370  A    between atoms: _769  and  _770
REMARK  371  A    between atoms: _769  and  _772
REMARK  372  A    between atoms: _772  and  _773
REMARK  373  A    between atoms: _773  and  _774
REMARK  374  A    between atoms: _774  and  _775
REMARK  375  A    between atoms: _777  and  _778
REMARK  376  A    between atoms: _778  and  _779
REMARK  377  A    between atoms: _778  and  _781
REMARK  378  A    between atoms: _783  and  _784
REMARK  379  A    between atoms: _784  and  _785
REMARK  380  A    between atoms: _787  and  _788
REMARK  381  A    between atoms: _788  and  _789
REMARK  382  A    between atoms: _788  and  _791
REMARK  383  A    between atoms: _794  and  _795
REMARK  384  A    between atoms: _795  and  _796
REMARK  385  A    between atoms: _795  and  _798
REMARK  386  A    between atoms: _798  and  _799
REMARK  387  A    between atoms: _799  and  _800
REMARK  388  A    between atoms: _800  and  _801
REMARK  389  A    between atoms: _803  and  _804
REMARK  390  A    between atoms: _804  and  _805
REMARK  391  A    between atoms: _808  and  _809
REMARK  392  A    between atoms: _809  and  _810
REMARK  393  A    between atoms: _809  and  _812
REMARK  394  A    between atoms: _812  and  _813
REMARK  395  A    between atoms: _819  and  _820
REMARK  396  A    between atoms: _820  and  _821
REMARK  397  A    between atoms: _820  and  _823
REMARK  398  A    between atoms: _823  and  _824
REMARK  399  A    between atoms: _824  and  _825
REMARK  400  A    between atoms: _827  and  _828
REMARK  401  A    between atoms: _828  and  _829
REMARK  402  A    between atoms: _828  and  _831
REMARK  403  A    between atoms: _831  and  _832
REMARK  404  A    between atoms: _832  and  _833
REMARK  405  A    between atoms: _836  and  _837
REMARK  406  A    between atoms: _837  and  _838
REMARK  407  A    between atoms: _841  and  _842
REMARK  408  A    between atoms: _842  and  _843
REMARK  409  A    between atoms: _842  and  _845
REMARK  410  A    between atoms: _845  and  _846
REMARK  411  A    between atoms: _849  and  _850
REMARK  412  A    between atoms: _850  and  _851
REMARK  413  A    between atoms: _850  and  _853
REMARK  414  A    between atoms: _853  and  _854
REMARK  415  A    between atoms: _854  and  _855
REMARK  416  A    between atoms: _858  and  _859
REMARK  417  A    between atoms: _859  and  _860
REMARK  418  A    between atoms: _863  and  _864
REMARK  419  A    between atoms: _864  and  _865
REMARK  420  A    between atoms: _867  and  _868
REMARK  421  A    between atoms: _868  and  _869
REMARK  422  A    between atoms: _872  and  _873
REMARK  423  A    between atoms: _873  and  _874
REMARK  424  A    between atoms: _873  and  _876
REMARK  425  A    between atoms: _876  and  _877
REMARK  426  A    between atoms: _880  and  _881
REMARK  427  A    between atoms: _881  and  _882
REMARK  428  A    between atoms: _881  and  _884
REMARK  429  A    between atoms: _884  and  _885
REMARK  430  A    between atoms: _888  and  _889
REMARK  431  A    between atoms: _889  and  _890
REMARK  432  A    between atoms: _889  and  _892
REMARK  433  A    between atoms: _894  and  _895
REMARK  434  A    between atoms: _895  and  _896
REMARK  435  A    between atoms: _895  and  _898
REMARK  436  A    between atoms: _898  and  _899
REMARK  437  A    between atoms: _899  and  _900
REMARK  438  A    between atoms: _902  and  _903
REMARK  439  A    between atoms: _903  and  _904
REMARK  440  A    between atoms: _903  and  _906
REMARK  441  A    between atoms: _906  and  _907
REMARK  442  A    between atoms: _910  and  _911
REMARK  443  A    between atoms: _911  and  _912
REMARK  444  A    between atoms: _914  and  _915
REMARK  445  A    between atoms: _915  and  _916
REMARK  446  A    between atoms: _915  and  _918
REMARK  447  A    between atoms: _918  and  _919
REMARK  448  A    between atoms: _919  and  _920
REMARK  449  A    between atoms: _923  and  _924
REMARK  450  A    between atoms: _924  and  _925
REMARK  451  A    between atoms: _924  and  _927
REMARK  452  A    between atoms: _927  and  _928
REMARK  453  A    between atoms: _934  and  _935
REMARK  454  A    between atoms: _935  and  _936
REMARK  455  A    between atoms: _938  and  _939
REMARK  456  A    between atoms: _939  and  _940
REMARK  457  A    between atoms: _939  and  _942
REMARK  458  A    between atoms: _945  and  _946
REMARK  459  A    between atoms: _946  and  _947
REMARK  460  A    between atoms: _949  and  _950
REMARK  461  A    between atoms: _950  and  _951
REMARK  462  A    between atoms: _950  and  _953
REMARK  463  A    between atoms: _953  and  _954
REMARK  464  A    between atoms: _960  and  _961
REMARK  465  A    between atoms: _961  and  _962
REMARK  466  A    between atoms: _961  and  _964
REMARK  467  A    between atoms: _964  and  _965
REMARK  468  A    between atoms: _972  and  _973
REMARK  469  A    between atoms: _973  and  _974
REMARK  470  A    between atoms: _973  and  _976
REMARK  471  A    between atoms: _978  and  _979
REMARK  472  A    between atoms: _979  and  _980
REMARK  473  A    between atoms: _983  and  _984
REMARK  474  A    between atoms: _984  and  _985
REMARK  475  A    between atoms: _984  and  _987
REMARK  476  A    between atoms: _987  and  _988
REMARK  477  A    between atoms: _995  and  _996
REMARK  478  A    between atoms: _996  and  _997
REMARK  479  A    between atoms: _996  and  _999
REMARK  480  A    between atoms: _999  and  _1000
REMARK  481  A    between atoms: _1003  and  _1004
REMARK  482  A    between atoms: _1004  and  _1005
REMARK  483  A    between atoms: _1004  and  _1007
REMARK  484  A    between atoms: _1010  and  _1011
REMARK  485  A    between atoms: _1011  and  _1012
REMARK  486  A    between atoms: _1015  and  _1016
REMARK  487  A    between atoms: _1016  and  _1017
REMARK  488  A    between atoms: _1016  and  _1019
REMARK  489  A    between atoms: _1019  and  _1020
REMARK  490  A    between atoms: _1020  and  _1021
REMARK  491  A    between atoms: _1024  and  _1025
REMARK  492  A    between atoms: _1025  and  _1026
REMARK  493  A    between atoms: _1025  and  _1028
REMARK  494  A    between atoms: _1028  and  _1029
REMARK  495  A    between atoms: _1029  and  _1030
REMARK  496  A    between atoms: _1030  and  _1031
REMARK  497  A    between atoms: _1033  and  _1034
REMARK  498  A    between atoms: _1034  and  _1035
REMARK  499  A    between atoms: _1034  and  _1037
REMARK  500  A    between atoms: _1040  and  _1041
REMARK  501  A    between atoms: _1041  and  _1042
REMARK  502  A    between atoms: _1041  and  _1044
REMARK  503  A    between atoms: _1047  and  _1048
REMARK  504  A    between atoms: _1048  and  _1049
REMARK  505  A    between atoms: _1048  and  _1051
REMARK  506  A    between atoms: _1054  and  _1055
REMARK  507  A    between atoms: _1055  and  _1056
REMARK  508  A    between atoms: _1055  and  _1058
REMARK  509  A    between atoms: _1058  and  _1059
REMARK  510  A    between atoms: _1062  and  _1063
REMARK  511  A    between atoms: _1063  and  _1064
REMARK  512  A    between atoms: _1063  and  _1066
REMARK  513  A    between atoms: _1069  and  _1070
REMARK  514  A    between atoms: _1070  and  _1071
REMARK  515  A    between atoms: _1070  and  _1073
REMARK  516  A    between atoms: _1073  and  _1074
REMARK  517  A    between atoms: _1074  and  _1075
REMARK  518  A    between atoms: _1075  and  _1076
REMARK  519  A    between atoms: _1078  and  _1079
REMARK  520  A    between atoms: _1079  and  _1080
REMARK  521  A    between atoms: _1079  and  _1082
REMARK  522  A    between atoms: _1082  and  _1083
REMARK  523  A    between atoms: _1088  and  _1089
REMARK  524  A    between atoms: _1089  and  _1090
REMARK  525  A    between atoms: _1089  and  _1092
REMARK  526  A    between atoms: _1092  and  _1093
REMARK  527  A    between atoms: _1096  and  _1097
REMARK  528  A    between atoms: _1097  and  _1098
REMARK  529  A    between atoms: _1097  and  _1100
REMARK  530  A    between atoms: _1100  and  _1101
REMARK  531  A    between atoms: _1104  and  _1105
REMARK  532  A    between atoms: _1105  and  _1106
REMARK  533  A    between atoms: _1105  and  _1108
REMARK  534  A    between atoms: _1108  and  _1109
REMARK  535  A    between atoms: _1112  and  _1113
REMARK  536  A    between atoms: _1113  and  _1114
REMARK  537  A    between atoms: _1113  and  _1116
REMARK  538  A    between atoms: _1116  and  _1117
REMARK  539  A    between atoms: _1117  and  _1118
REMARK  540  A    between atoms: _1121  and  _1122
REMARK  541  A    between atoms: _1122  and  _1123
REMARK  542  A    between atoms: _1122  and  _1125
REMARK  543  A    between atoms: _1125  and  _1126
REMARK  544  A    between atoms: _1126  and  _1127
REMARK  545  A    between atoms: _1130  and  _1131
REMARK  546  A    between atoms: _1131  and  _1132
REMARK  547  A    between atoms: _1131  and  _1134
REMARK  548  A    between atoms: _1134  and  _1135
REMARK  549  A    between atoms: _1142  and  _1143
REMARK  550  A    between atoms: _1143  and  _1144
REMARK  551  A    between atoms: _1147  and  _1148
REMARK  552  A    between atoms: _1148  and  _1149
REMARK  553  A    between atoms: _1148  and  _1151
REMARK  554  A    between atoms: _1151  and  _1152
REMARK  555  A    between atoms: _1161  and  _1162
REMARK  556  A    between atoms: _1162  and  _1163
REMARK  557  A    between atoms: _1162  and  _1165
REMARK  558  A    between atoms: _1165  and  _1166
REMARK  559  A    between atoms: _1166  and  _1167
REMARK  560  A    between atoms: _1170  and  _1171
REMARK  561  A    between atoms: _1171  and  _1172
REMARK  562  A    between atoms: _1171  and  _1174
REMARK  563  A    between atoms: _1176  and  _1177
REMARK  564  A    between atoms: _1177  and  _1178
REMARK  565  A    between atoms: _1177  and  _1180
REMARK  566  A    between atoms: _1182  and  _1183
REMARK  567  A    between atoms: _1183  and  _1184
REMARK  568  A    between atoms: _1187  and  _1188
REMARK  569  A    between atoms: _1188  and  _1189
REMARK  570  A    between atoms: _1191  and  _1192
REMARK  571  A    between atoms: _1192  and  _1193
REMARK  572  A    between atoms: _1195  and  _1196
REMARK  573  A    between atoms: _1196  and  _1197
REMARK  574  A    between atoms: _1196  and  _1199
REMARK  575  A    between atoms: _1201  and  _1202
REMARK  576  A    between atoms: _1202  and  _1203
REMARK  577  A    between atoms: _1202  and  _1205
REMARK  578  A    between atoms: _1205  and  _1206
REMARK  579  A    between atoms: _1212  and  _1213
REMARK  580  A    between atoms: _1213  and  _1214
REMARK  581  A    between atoms: _1213  and  _1216
REMARK  582  A    between atoms: _1219  and  _1220
REMARK  583  A    between atoms: _1220  and  _1221
REMARK  584  A    between atoms: _1220  and  _1223
REMARK  585  A    between atoms: _1226  and  _1227
REMARK  586  A    between atoms: _1227  and  _1228
REMARK  587  A    between atoms: _1227  and  _1230
REMARK  588  A    between atoms: _1230  and  _1231
REMARK  589  A    between atoms: _1231  and  _1232
REMARK  590  A    between atoms: _1232  and  _1233
REMARK  591  A    between atoms: _1237  and  _1238
REMARK  592  A    between atoms: _1238  and  _1239
REMARK  593  A    between atoms: _1238  and  _1241
REMARK  594  A    between atoms: _1244  and  _1245
REMARK  595  A    between atoms: _1245  and  _1246
REMARK  596  A    between atoms: _1245  and  _1248
REMARK  597  A    between atoms: _1248  and  _1249
REMARK  598  A    between atoms: _1252  and  _1253
REMARK  599  A    between atoms: _1253  and  _1254
REMARK  600  A    between atoms: _1253  and  _1256
REMARK  601  A    between atoms: _1259  and  _1260
REMARK  602  A    between atoms: _1260  and  _1261
REMARK  603  A    between atoms: _1263  and  _1264
REMARK  604  A    between atoms: _1264  and  _1265
REMARK  605  A    between atoms: _1264  and  _1267
REMARK  606  A    between atoms: _1267  and  _1268
REMARK  607  A    between atoms: _1268  and  _1269
REMARK  608  A    between atoms: _1273  and  _1274
REMARK  609  A    between atoms: _1279  and  _1280
REMARK  610  A    between atoms: _1280  and  _1285
REMARK  611  A    between atoms: _1285  and  _1286
REMARK  612  A    between atoms: _1286  and  _1287
REMARK  613  A    between atoms: _1287  and  _1289
REMARK  614  A    between atoms: _1292  and  _1293
REMARK  615  A    between atoms: _1293  and  _1294
REMARK  616  A    between atoms: _1296  and  _1297
REMARK  617  A    between atoms: _1297  and  _1298
REMARK  618  A    between atoms: _1297  and  _1300
REMARK  619  A    between atoms: _1300  and  _1301
REMARK  620  A    between atoms: _1301  and  _1302
REMARK  621  A    between atoms: _1302  and  _1303
REMARK  622  A    between atoms: _1307  and  _1308
REMARK  623  A    between atoms: _1308  and  _1309
REMARK  624  A    between atoms: _1311  and  _1312
REMARK  625  A    between atoms: _1312  and  _1313
REMARK  626  A    between atoms: _1312  and  _1315
REMARK  627  A    between atoms: _1318  and  _1319
REMARK  628  A    between atoms: _1319  and  _1320
REMARK  629  A    between atoms: _1319  and  _1322
REMARK  630  A    between atoms: _1322  and  _1323
REMARK  631  A    between atoms: _1323  and  _1324
REMARK  632  A    between atoms: _1324  and  _1325
REMARK  633  A    between atoms: _1327  and  _1328
REMARK  634  A    between atoms: _1328  and  _1329
REMARK  635  A    between atoms: _1328  and  _1331
REMARK  636  A    between atoms: _1334  and  _1335
REMARK  637  A    between atoms: _1335  and  _1336
REMARK  638  A    between atoms: _1335  and  _1338
REMARK  639  A    between atoms: _1338  and  _1339
REMARK  640  A    between atoms: _1342  and  _1343
REMARK  641  A    between atoms: _1343  and  _1344
REMARK  642  A    between atoms: _1343  and  _1346
REMARK  643  A    between atoms: _1346  and  _1347
REMARK  644  A    between atoms: _1350  and  _1351
REMARK  645  A    between atoms: _1351  and  _1352
REMARK  646  A    between atoms: _1351  and  _1354
REMARK  647  A    between atoms: _1354  and  _1355
REMARK  648  A    between atoms: _1360  and  _1361
REMARK  649  A    between atoms: _1361  and  _1362
REMARK  650  A    between atoms: _1361  and  _1364
REMARK  651  A    between atoms: _1364  and  _1365
REMARK  652  A    between atoms: _1368  and  _1369
REMARK  653  A    between atoms: _1369  and  _1370
REMARK  654  A    between atoms: _1369  and  _1372
REMARK  655  A    between atoms: _1372  and  _1373
REMARK  656  A    between atoms: _1373  and  _1374
REMARK  657  A    between atoms: _1374  and  _1375
REMARK  658  A    between atoms: _1377  and  _1378
REMARK  659  A    between atoms: _1378  and  _1379
REMARK  660  A    between atoms: _1378  and  _1381
REMARK  661  A    between atoms: _1381  and  _1382
REMARK  662  A    between atoms: _1382  and  _1383
REMARK  663  A    between atoms: _1386  and  _1387
REMARK  664  A    between atoms: _1387  and  _1388
REMARK  665  A    between atoms: _1387  and  _1390
REMARK  666  A    between atoms: _1390  and  _1391
REMARK  667  A    between atoms: _1394  and  _1395
REMARK  668  A    between atoms: _1395  and  _1396
REMARK  669  A    between atoms: _1395  and  _1398
REMARK  670  A    between atoms: _1398  and  _1399
REMARK  671  A    between atoms: _1399  and  _1400
REMARK  672  A    between atoms: _1403  and  _1404
REMARK  673  A    between atoms: _1404  and  _1405
REMARK  674  A    between atoms: _1404  and  _1407
REMARK  675  A    between atoms: _1410  and  _1411
REMARK  676  A    between atoms: _1411  and  _1412
REMARK  677  A    between atoms: _1411  and  _1414
REMARK  678  A    between atoms: _1414  and  _1415
REMARK  679  A    between atoms: _1415  and  _1416
REMARK  680  A    between atoms: _1419  and  _1420
REMARK  681  A    between atoms: _1420  and  _1421
REMARK  682  A    between atoms: _1420  and  _1423
REMARK  683  A    between atoms: _1423  and  _1424
REMARK  684  A    between atoms: _1431  and  _1432
REMARK  685  A    between atoms: _1432  and  _1433
REMARK  686  A    between atoms: _1432  and  _1435
REMARK  687  A    between atoms: _1435  and  _1436
REMARK  688  A    between atoms: _1439  and  _1440
REMARK  689  A    between atoms: _1440  and  _1441
REMARK  690  A    between atoms: _1440  and  _1443
REMARK  691  A    between atoms: _1443  and  _1444
REMARK  692  A    between atoms: _1444  and  _1445
REMARK  693  A    between atoms: _1448  and  _1449
REMARK  694  A    between atoms: _1449  and  _1450
REMARK  695  A    between atoms: _1449  and  _1452
REMARK  696  A    between atoms: _1452  and  _1453
REMARK  697  A    between atoms: _1453  and  _1454
REMARK  698  A    between atoms: _1457  and  _1458
REMARK  699  A    between atoms: _1458  and  _1459
REMARK  700  A    between atoms: _1458  and  _1461
REMARK  701  A    between atoms: _1461  and  _1462
REMARK  702  A    between atoms: _1462  and  _1463
REMARK  703  A    between atoms: _1463  and  _1464
REMARK  704  A    between atoms: _1468  and  _1469
REMARK  705  A    between atoms: _1469  and  _1470
REMARK  706  A    between atoms: _1469  and  _1472
REMARK  707  A    between atoms: _1472  and  _1473
REMARK  708  A    between atoms: _1473  and  _1474
REMARK  709  A    between atoms: _1474  and  _1475
REMARK  710  A    between atoms: _1479  and  _1480
REMARK  711  A    between atoms: _1480  and  _1481
REMARK  712  A    between atoms: _1480  and  _1483
REMARK  713  A    between atoms: _1483  and  _1484
REMARK  714  A    between atoms: _1487  and  _1488
REMARK  715  A    between atoms: _1488  and  _1489
REMARK  716  A    between atoms: _1488  and  _1491
REMARK  717  A    between atoms: _1491  and  _1492
REMARK  718  A    between atoms: _1492  and  _1493
REMARK  719  A    between atoms: _1493  and  _1494
REMARK  720  A    between atoms: _1496  and  _1497
REMARK  721  A    between atoms: _1497  and  _1498
REMARK  722  A    between atoms: _1497  and  _1500
REMARK  723  A    between atoms: _1500  and  _1501
REMARK  724  A    between atoms: _1501  and  _1502
REMARK  725  A    between atoms: _1505  and  _1506
REMARK  726  A    between atoms: _1506  and  _1507
REMARK  727  A    between atoms: _1506  and  _1509
REMARK  728  A    between atoms: _1509  and  _1510
REMARK  729  A    between atoms: _1513  and  _1514
REMARK  730  A    between atoms: _1514  and  _1515
REMARK  731  A    between atoms: _1514  and  _1517
REMARK  732  A    between atoms: _1520  and  _1521
REMARK  733  A    between atoms: _1521  and  _1522
REMARK  734  A    between atoms: _1521  and  _1524
REMARK  735  A    between atoms: _1524  and  _1525
REMARK  736  A    between atoms: _1525  and  _1526
REMARK  737  A    between atoms: _1526  and  _1527
REMARK  738  A    between atoms: _1529  and  _1530
REMARK  739  A    between atoms: _1530  and  _1531
REMARK  740  A    between atoms: _1530  and  _1533
REMARK  741  A    between atoms: _1533  and  _1534
REMARK  742  A    between atoms: _1534  and  _1535
REMARK  743  A    between atoms: _1535  and  _1536
REMARK  744  A    between atoms: _1538  and  _1539
REMARK  745  A    between atoms: _1539  and  _1540
REMARK  746  A    between atoms: _1539  and  _1542
REMARK  747  A    between atoms: _1542  and  _1543
REMARK  748  A    between atoms: _1548  and  _1549
REMARK  749  A    between atoms: _1549  and  _1550
REMARK  750  A    between atoms: _1549  and  _1552
REMARK  751  A    between atoms: _1554  and  _1555
REMARK  752  A    between atoms: _1555  and  _1556
REMARK  753  A    between atoms: _1555  and  _1558
REMARK  754  A    between atoms: _1558  and  _1559
REMARK  755  A    between atoms: _1559  and  _1560
REMARK  756  A    between atoms: _1563  and  _1564
REMARK  757  A    between atoms: _1564  and  _1565
REMARK  758  A    between atoms: _1564  and  _1567
REMARK  759  A    between atoms: _1567  and  _1568
REMARK  760  A    between atoms: _1574  and  _1575
REMARK  761  A    between atoms: _1575  and  _1576
REMARK  762  A    between atoms: _1575  and  _1578
REMARK  763  A    between atoms: _1578  and  _1579
REMARK  764  A    between atoms: _1582  and  _1583
REMARK  765  A    between atoms: _1583  and  _1584
REMARK  766  A    between atoms: _1586  and  _1587
REMARK  767  A    between atoms: _1587  and  _1588
REMARK  768  A    between atoms: _1587  and  _1590
REMARK  769  A    between atoms: _1590  and  _1591
REMARK  770  A    between atoms: _1599  and  _1600
REMARK  771  A    between atoms: _1605  and  _1606
REMARK  772  A    between atoms: _1606  and  _1607
REMARK  773  A    between atoms: _1606  and  _1609
REMARK  774  A    between atoms: _1609  and  _1610
REMARK  775  A    between atoms: _1613  and  _1614
REMARK  776  A    between atoms: _1614  and  _1615
REMARK  777  A    between atoms: _1614  and  _1617
REMARK  778  A    between atoms: _1620  and  _1621
REMARK  779  A    between atoms: _1621  and  _1622
REMARK  780  A    between atoms: _1621  and  _1624
REMARK  781  A    between atoms: _1624  and  _1625
REMARK  782  A    between atoms: _1628  and  _1629
REMARK  783  A    between atoms: _1629  and  _1630
REMARK  784  A    between atoms: _1629  and  _1632
REMARK  785  A    between atoms: _1632  and  _1633
REMARK  786  A    between atoms: _1639  and  _1640
REMARK  787  A    between atoms: _1640  and  _1641
REMARK  788  A    between atoms: _1640  and  _1643
REMARK  789  A    between atoms: _1646  and  _1647
REMARK  790  A    between atoms: _1647  and  _1648
REMARK  791  A    between atoms: _1647  and  _1650
REMARK  792  A    between atoms: _1650  and  _1651
REMARK  793  A    between atoms: _1651  and  _1652
REMARK  794  A    between atoms: _1655  and  _1656
REMARK  795  A    between atoms: _1656  and  _1657
REMARK  796  A    between atoms: _1656  and  _1659
REMARK  797  A    between atoms: _1659  and  _1660
REMARK  798  A    between atoms: _1660  and  _1661
REMARK                            x       y       z     vdW  Elec       q    Type
REMARK                         _______ _______ _______ _____ _____    ______ ____
ROOT
ATOM      1  C   UNL     1       4.659 -12.326  24.349  0.00  0.00    +0.000 C 
ENDROOT
TORSDOF 0
REMARK  Name = /Users/mlugowska/PhD/ML_residence_time_prediction/protein_files/5NYI_protein.pdb
REMARK  798 active torsions:
REMARK  status: ('A' for Active; 'I' for Inactive)
REMARK    1  A    between atoms: _2  and  _3
REMARK    2  A    between atoms: _2  and  _5
REMARK    3  A    between atoms: _5  and  _6
REMARK    4  A    between atoms: _6  and  _7
REMARK    5  A    between atoms: _10  and  _11
REMARK    6  A    between atoms: _11  and  _12
REMARK    7  A    between atoms: _11  and  _14
REMARK    8  A    between atoms: _17  and  _18
REMARK    9  A    between atoms: _18  and  _19
REMARK   10  A    between atoms: _18  and  _21
REMARK   11  A    between atoms: _21  and  _22
REMARK   12  A    between atoms: _22  and  _23
REMARK   13  A    between atoms: _26  and  _27
REMARK   14  A    between atoms: _27  and  _28
REMARK   15  A    between atoms: _27  and  _30
REMARK   16  A    between atoms: _33  and  _34
REMARK   17  A    between atoms: _34  and  _35
REMARK   18  A    between atoms: _34  and  _37
REMARK   19  A    between atoms: _37  and  _38
REMARK   20  A    between atoms: _44  and  _45
REMARK   21  A    between atoms: _45  and  _46
REMARK   22  A    between atoms: _49  and  _50
REMARK   23  A    between atoms: _50  and  _51
REMARK   24  A    between atoms: _50  and  _53
REMARK   25  A    between atoms: _53  and  _54
REMARK   26  A    between atoms: _60  and  _61
REMARK   27  A    between atoms: _61  and  _62
REMARK   28  A    between atoms: _61  and  _64
REMARK   29  A    between atoms: _64  and  _65
REMARK   30  A    between atoms: _65  and  _66
REMARK   31  A    between atoms: _69  and  _70
REMARK   32  A    between atoms: _70  and  _71
REMARK   33  A    between atoms: _74  and  _75
REMARK   34  A    between atoms: _75  and  _76
REMARK   35  A    between atoms: _75  and  _78
REMARK   36  A    between atoms: _78  and  _79
REMARK   37  A    between atoms: _79  and  _80
REMARK   38  A    between atoms: _83  and  _84
REMARK   39  A    between atoms: _84  and  _86
REMARK   40  A    between atoms: _88  and  _90
REMARK   41  A    between atoms: _96  and  _97
REMARK   42  A    between atoms: _97  and  _98
REMARK   43  A    between atoms: _101  and  _102
REMARK   44  A    between atoms: _102  and  _103
REMARK   45  A    between atoms: _102  and  _105
REMARK   46  A    between atoms: _105  and  _106
REMARK   47  A    between atoms: _106  and  _107
REMARK   48  A    between atoms: _110  and  _111
REMARK   49  A    between atoms: _111  and  _112
REMARK   50  A    between atoms: _111  and  _114
REMARK   51  A    between atoms: _114  and  _115
REMARK   52  A    between atoms: _118  and  _119
REMARK   53  A    between atoms: _119  and  _120
REMARK   54  A    between atoms: _119  and  _122
REMARK   55  A    between atoms: _122  and  _123
REMARK   56  A    between atoms: _123  and  _124
REMARK   57  A    between atoms: _126  and  _127
REMARK   58  A    between atoms: _127  and  _128
REMARK   59  A    between atoms: _127  and  _130
REMARK   60  A    between atoms: _132  and  _133
REMARK   61  A    between atoms: _133  and  _134
REMARK   62  A    between atoms: _133  and  _136
REMARK   63  A    between atoms: _136  and  _137
REMARK   64  A    between atoms: _140  and  _141
REMARK   65  A    between atoms: _141  and  _142
REMARK   66  A    between atoms: _141  and  _144
REMARK   67  A    between atoms: _144  and  _145
REMARK   68  A    between atoms: _148  and  _149
REMARK   69  A    between atoms: _149  and  _150
REMARK   70  A    between atoms: _149  and  _152
REMARK   71  A    between atoms: _152  and  _153
REMARK   72  A    between atoms: _156  and  _157
REMARK   73  A    between atoms: _157  and  _158
REMARK   74  A    between atoms: _157  and  _160
REMARK   75  A    between atoms: _160  and  _161
REMARK   76  A    between atoms: _164  and  _165
REMARK   77  A    between atoms: _165  and  _166
REMARK   78  A    between atoms: _165  and  _168
REMARK   79  A    between atoms: _171  and  _172
REMARK   80  A    between atoms: _172  and  _173
REMARK   81  A    between atoms: _172  and  _175
REMARK   82  A    between atoms: _175  and  _176
REMARK   83  A    between atoms: _182  and  _183
REMARK   84  A    between atoms: _183  and  _184
REMARK   85  A    between atoms: _183  and  _186
REMARK   86  A    between atoms: _186  and  _187
REMARK   87  A    between atoms: _194  and  _195
REMARK   88  A    between atoms: _195  and  _196
REMARK   89  A    between atoms: _195  and  _198
REMARK   90  A    between atoms: _200  and  _201
REMARK   91  A    between atoms: _201  and  _202
REMARK   92  A    between atoms: _201  and  _204
REMARK   93  A    between atoms: _204  and  _205
REMARK   94  A    between atoms: _208  and  _209
REMARK   95  A    between atoms: _209  and  _210
REMARK   96  A    between atoms: _209  and  _212
REMARK   97  A    between atoms: _212  and  _213
REMARK   98  A    between atoms: _213  and  _214
REMARK   99  A    between atoms: _214  and  _215
REMARK  100  A    between atoms: _217  and  _218
REMARK  101  A    between atoms: _218  and  _219
REMARK  102  A    between atoms: _218  and  _221
REMARK  103  A    between atoms: _221  and  _222
REMARK  104  A    between atoms: _222  and  _223
REMARK  105  A    between atoms: _226  and  _227
REMARK  106  A    between atoms: _227  and  _228
REMARK  107  A    between atoms: _227  and  _230
REMARK  108  A    between atoms: _230  and  _231
REMARK  109  A    between atoms: _234  and  _235
REMARK  110  A    between atoms: _235  and  _236
REMARK  111  A    between atoms: _235  and  _238
REMARK  112  A    between atoms: _238  and  _239
REMARK  113  A    between atoms: _245  and  _246
REMARK  114  A    between atoms: _246  and  _247
REMARK  115  A    between atoms: _246  and  _249
REMARK  116  A    between atoms: _249  and  _250
REMARK  117  A    between atoms: _253  and  _254
REMARK  118  A    between atoms: _254  and  _255
REMARK  119  A    between atoms: _254  and  _257
REMARK  120  A    between atoms: _257  and  _258
REMARK  121  A    between atoms: _258  and  _259
REMARK  122  A    between atoms: _259  and  _260
REMARK  123  A    between atoms: _264  and  _265
REMARK  124  A    between atoms: _265  and  _266
REMARK  125  A    between atoms: _265  and  _268
REMARK  126  A    between atoms: _268  and  _269
REMARK  127  A    between atoms: _269  and  _270
REMARK  128  A    between atoms: _273  and  _274
REMARK  129  A    between atoms: _274  and  _275
REMARK  130  A    between atoms: _274  and  _277
REMARK  131  A    between atoms: _277  and  _278
REMARK  132  A    between atoms: _281  and  _282
REMARK  133  A    between atoms: _282  and  _283
REMARK  134  A    between atoms: _282  and  _285
REMARK  135  A    between atoms: _285  and  _286
REMARK  136  A    between atoms: _289  and  _290
REMARK  137  A    between atoms: _290  and  _295
REMARK  138  A    between atoms: _298  and  _299
REMARK  139  A    between atoms: _299  and  _300
REMARK  140  A    between atoms: _299  and  _302
REMARK  141  A    between atoms: _302  and  _303
REMARK  142  A    between atoms: _306  and  _307
REMARK  143  A    between atoms: _307  and  _308
REMARK  144  A    between atoms: _307  and  _310
REMARK  145  A    between atoms: _312  and  _313
REMARK  146  A    between atoms: _313  and  _314
REMARK  147  A    between atoms: _313  and  _316
REMARK  148  A    between atoms: _318  and  _319
REMARK  149  A    between atoms: _319  and  _320
REMARK  150  A    between atoms: _319  and  _322
REMARK  151  A    between atoms: _322  and  _323
REMARK  152  A    between atoms: _326  and  _327
REMARK  153  A    between atoms: _327  and  _328
REMARK  154  A    between atoms: _331  and  _332
REMARK  155  A    between atoms: _332  and  _333
REMARK  156  A    between atoms: _332  and  _335
REMARK  157  A    between atoms: _335  and  _336
REMARK  158  A    between atoms: _339  and  _340
REMARK  159  A    between atoms: _340  and  _341
REMARK  160  A    between atoms: _340  and  _343
REMARK  161  A    between atoms: _343  and  _344
REMARK  162  A    between atoms: _347  and  _348
REMARK  163  A    between atoms: _348  and  _349
REMARK  164  A    between atoms: _348  and  _351
REMARK  165  A    between atoms: _351  and  _352
REMARK  166  A    between atoms: _352  and  _353
REMARK  167  A    between atoms: _353  and  _354
REMARK  168  A    between atoms: _356  and  _357
REMARK  169  A    between atoms: _357  and  _358
REMARK  170  A    between atoms: _357  and  _360
REMARK  171  A    between atoms: _360  and  _361
REMARK  172  A    between atoms: _364  and  _365
REMARK  173  A    between atoms: _365  and  _366
REMARK  174  A    between atoms: _365  and  _368
REMARK  175  A    between atoms: _368  and  _369
REMARK  176  A    between atoms: _369  and  _370
REMARK  177  A    between atoms: _370  and  _371
REMARK  178  A    between atoms: _375  and  _376
REMARK  179  A    between atoms: _376  and  _377
REMARK  180  A    between atoms: _376  and  _379
REMARK  181  A    between atoms: _379  and  _380
REMARK  182  A    between atoms: _387  and  _388
REMARK  183  A    between atoms: _388  and  _389
REMARK  184  A    between atoms: _388  and  _391
REMARK  185  A    between atoms: _391  and  _392
REMARK  186  A    between atoms: _392  and  _393
REMARK  187  A    between atoms: _396  and  _397
REMARK  188  A    between atoms: _397  and  _398
REMARK  189  A    between atoms: _397  and  _400
REMARK  190  A    between atoms: _403  and  _404
REMARK  191  A    between atoms: _404  and  _405
REMARK  192  A    between atoms: _404  and  _407
REMARK  193  A    between atoms: _407  and  _408
REMARK  194  A    between atoms: _411  and  _412
REMARK  195  A    between atoms: _412  and  _413
REMARK  196  A    between atoms: _412  and  _415
REMARK  197  A    between atoms: _418  and  _419
REMARK  198  A    between atoms: _419  and  _420
REMARK  199  A    between atoms: _419  and  _422
REMARK  200  A    between atoms: _422  and  _423
REMARK  201  A    between atoms: _427  and  _428
REMARK  202  A    between atoms: _433  and  _434
REMARK  203  A    between atoms: _434  and  _435
REMARK  204  A    between atoms: _434  and  _437
REMARK  205  A    between atoms: _439  and  _440
REMARK  206  A    between atoms: _440  and  _441
REMARK  207  A    between atoms: _440  and  _443
REMARK  208  A    between atoms: _443  and  _444
REMARK  209  A    between atoms: _444  and  _445
REMARK  210  A    between atoms: _445  and  _446
REMARK  211  A    between atoms: _448  and  _449
REMARK  212  A    between atoms: _449  and  _450
REMARK  213  A    between atoms: _449  and  _452
REMARK  214  A    between atoms: _452  and  _453
REMARK  215  A    between atoms: _456  and  _457
REMARK  216  A    between atoms: _457  and  _458
REMARK  217  A    between atoms: _457  and  _460
REMARK  218  A    between atoms: _460  and  _461
REMARK  219  A    between atoms: _464  and  _465
REMARK  220  A    between atoms: _465  and  _466
REMARK  221  A    between atoms: _465  and  _468
REMARK  222  A    between atoms: _470  and  _471
REMARK  223  A    between atoms: _471  and  _472
REMARK  224  A    between atoms: _474  and  _475
REMARK  225  A    between atoms: _475  and  _476
REMARK  226  A    between atoms: _475  and  _478
REMARK  227  A    between atoms: _478  and  _479
REMARK  228  A    between atoms: _479  and  _480
REMARK  229  A    between atoms: _480  and  _481
REMARK  230  A    between atoms: _483  and  _484
REMARK  231  A    between atoms: _484  and  _485
REMARK  232  A    between atoms: _484  and  _487
REMARK  233  A    between atoms: _487  and  _488
REMARK  234  A    between atoms: _488  and  _489
REMARK  235  A    between atoms: _492  and  _493
REMARK  236  A    between atoms: _493  and  _494
REMARK  237  A    between atoms: _493  and  _496
REMARK  238  A    between atoms: _496  and  _497
REMARK  239  A    between atoms: _500  and  _501
REMARK  240  A    between atoms: _501  and  _502
REMARK  241  A    between atoms: _501  and  _504
REMARK  242  A    between atoms: _504  and  _505
REMARK  243  A    between atoms: _510  and  _511
REMARK  244  A    between atoms: _511  and  _512
REMARK  245  A    between atoms: _511  and  _514
REMARK  246  A    between atoms: _514  and  _515
REMARK  247  A    between atoms: _518  and  _519
REMARK  248  A    between atoms: _519  and  _520
REMARK  249  A    between atoms: _519  and  _522
REMARK  250  A    between atoms: _522  and  _523
REMARK  251  A    between atoms: _526  and  _527
REMARK  252  A    between atoms: _527  and  _528
REMARK  253  A    between atoms: _527  and  _530
REMARK  254  A    between atoms: _530  and  _531
REMARK  255  A    between atoms: _534  and  _535
REMARK  256  A    between atoms: _535  and  _536
REMARK  257  A    between atoms: _535  and  _538
REMARK  258  A    between atoms: _538  and  _539
REMARK  259  A    between atoms: _543  and  _544
REMARK  260  A    between atoms: _549  and  _550
REMARK  261  A    between atoms: _550  and  _551
REMARK  262  A    between atoms: _550  and  _553
REMARK  263  A    between atoms: _553  and  _554
REMARK  264  A    between atoms: _557  and  _558
REMARK  265  A    between atoms: _558  and  _559
REMARK  266  A    between atoms: _558  and  _561
REMARK  267  A    between atoms: _561  and  _562
REMARK  268  A    between atoms: _562  and  _563
REMARK  269  A    between atoms: _563  and  _564
REMARK  270  A    between atoms: _566  and  _567
REMARK  271  A    between atoms: _567  and  _568
REMARK  272  A    between atoms: _567  and  _570
REMARK  273  A    between atoms: _570  and  _571
REMARK  274  A    between atoms: _571  and  _572
REMARK  275  A    between atoms: _575  and  _576
REMARK  276  A    between atoms: _576  and  _577
REMARK  277  A    between atoms: _576  and  _579
REMARK  278  A    between atoms: _579  and  _580
REMARK  279  A    between atoms: _583  and  _584
REMARK  280  A    between atoms: _584  and  _585
REMARK  281  A    between atoms: _584  and  _587
REMARK  282  A    between atoms: _587  and  _588
REMARK  283  A    between atoms: _588  and  _589
REMARK  284  A    between atoms: _589  and  _590
REMARK  285  A    between atoms: _594  and  _595
REMARK  286  A    between atoms: _595  and  _596
REMARK  287  A    between atoms: _595  and  _598
REMARK  288  A    between atoms: _601  and  _602
REMARK  289  A    between atoms: _602  and  _603
REMARK  290  A    between atoms: _602  and  _605
REMARK  291  A    between atoms: _605  and  _606
REMARK  292  A    between atoms: _609  and  _610
REMARK  293  A    between atoms: _610  and  _611
REMARK  294  A    between atoms: _610  and  _613
REMARK  295  A    between atoms: _616  and  _617
REMARK  296  A    between atoms: _617  and  _618
REMARK  297  A    between atoms: _617  and  _620
REMARK  298  A    between atoms: _620  and  _621
REMARK  299  A    between atoms: _624  and  _625
REMARK  300  A    between atoms: _625  and  _626
REMARK  301  A    between atoms: _625  and  _628
REMARK  302  A    between atoms: _631  and  _632
REMARK  303  A    between atoms: _632  and  _633
REMARK  304  A    between atoms: _632  and  _635
REMARK  305  A    between atoms: _635  and  _636
REMARK  306  A    between atoms: _639  and  _640
REMARK  307  A    between atoms: _640  and  _641
REMARK  308  A    between atoms: _640  and  _643
REMARK  309  A    between atoms: _646  and  _647
REMARK  310  A    between atoms: _647  and  _648
REMARK  311  A    between atoms: _650  and  _651
REMARK  312  A    between atoms: _651  and  _652
REMARK  313  A    between atoms: _651  and  _654
REMARK  314  A    between atoms: _654  and  _655
REMARK  315  A    between atoms: _658  and  _659
REMARK  316  A    between atoms: _659  and  _660
REMARK  317  A    between atoms: _662  and  _663
REMARK  318  A    between atoms: _663  and  _664
REMARK  319  A    between atoms: _663  and  _666
REMARK  320  A    between atoms: _666  and  _667
REMARK  321  A    between atoms: _667  and  _668
REMARK  322  A    between atoms: _670  and  _671
REMARK  323  A    between atoms: _671  and  _672
REMARK  324  A    between atoms: _671  and  _674
REMARK  325  A    between atoms: _677  and  _678
REMARK  326  A    between atoms: _678  and  _679
REMARK  327  A    between atoms: _678  and  _681
REMARK  328  A    between atoms: _681  and  _682
REMARK  329  A    between atoms: _682  and  _683
REMARK  330  A    between atoms: _683  and  _684
REMARK  331  A    between atoms: _686  and  _687
REMARK  332  A    between atoms: _687  and  _688
REMARK  333  A    between atoms: _691  and  _692
REMARK  334  A    between atoms: _692  and  _693
REMARK  335  A    between atoms: _692  and  _695
REMARK  336  A    between atoms: _695  and  _696
REMARK  337  A    between atoms: _699  and  _700
REMARK  338  A    between atoms: _700  and  _701
REMARK  339  A    between atoms: _700  and  _703
REMARK  340  A    between atoms: _703  and  _704
REMARK  341  A    between atoms: _707  and  _708
REMARK  342  A    between atoms: _708  and  _709
REMARK  343  A    between atoms: _708  and  _711
REMARK  344  A    between atoms: _711  and  _712
REMARK  345  A    between atoms: _715  and  _716
REMARK  346  A    between atoms: _716  and  _717
REMARK  347  A    between atoms: _716  and  _719
REMARK  348  A    between atoms: _719  and  _720
REMARK  349  A    between atoms: _723  and  _724
REMARK  350  A    between atoms: _724  and  _725
REMARK  351  A    between atoms: _724  and  _727
REMARK  352  A    between atoms: _727  and  _728
REMARK  353  A    between atoms: _733  and  _734
REMARK  354  A    between atoms: _733  and  _736
REMARK  355  A    between atoms: _736  and  _739
REMARK  356  A    between atoms: _739  and  _741
REMARK  357  A    between atoms: _741  and  _742
REMARK  358  A    between atoms: _744  and  _745
REMARK  359  A    between atoms: _745  and  _746
REMARK  360  A    between atoms: _748  and  _749
REMARK  361  A    between atoms: _749  and  _750
REMARK  362  A    between atoms: _749  and  _752
REMARK  363  A    between atoms: _755  and  _756
REMARK  364  A    between atoms: _756  and  _757
REMARK  365  A    between atoms: _756  and  _759
REMARK  366  A    between atoms: _759  and  _760
REMARK  367  A    between atoms: _763  and  _764
REMARK  368  A    between atoms: _764  and  _765
REMARK  369  A    between atoms: _768  and  _769
REMARK  370  A    between atoms: _769  and  _770
REMARK  371  A    between atoms: _769  and  _772
REMARK  372  A    between atoms: _772  and  _773
REMARK  373  A    between atoms: _773  and  _774
REMARK  374  A    between atoms: _774  and  _775
REMARK  375  A    between atoms: _777  and  _778
REMARK  376  A    between atoms: _778  and  _779
REMARK  377  A    between atoms: _778  and  _781
REMARK  378  A    between atoms: _783  and  _784
REMARK  379  A    between atoms: _784  and  _785
REMARK  380  A    between atoms: _787  and  _788
REMARK  381  A    between atoms: _788  and  _789
REMARK  382  A    between atoms: _788  and  _791
REMARK  383  A    between atoms: _794  and  _795
REMARK  384  A    between atoms: _795  and  _796
REMARK  385  A    between atoms: _795  and  _798
REMARK  386  A    between atoms: _798  and  _799
REMARK  387  A    between atoms: _799  and  _800
REMARK  388  A    between atoms: _800  and  _801
REMARK  389  A    between atoms: _803  and  _804
REMARK  390  A    between atoms: _804  and  _805
REMARK  391  A    between atoms: _808  and  _809
REMARK  392  A    between atoms: _809  and  _810
REMARK  393  A    between atoms: _809  and  _812
REMARK  394  A    between atoms: _812  and  _813
REMARK  395  A    between atoms: _819  and  _820
REMARK  396  A    between atoms: _820  and  _821
REMARK  397  A    between atoms: _820  and  _823
REMARK  398  A    between atoms: _823  and  _824
REMARK  399  A    between atoms: _824  and  _825
REMARK  400  A    between atoms: _827  and  _828
REMARK  401  A    between atoms: _828  and  _829
REMARK  402  A    between atoms: _828  and  _831
REMARK  403  A    between atoms: _831  and  _832
REMARK  404  A    between atoms: _832  and  _833
REMARK  405  A    between atoms: _836  and  _837
REMARK  406  A    between atoms: _837  and  _838
REMARK  407  A    between atoms: _841  and  _842
REMARK  408  A    between atoms: _842  and  _843
REMARK  409  A    between atoms: _842  and  _845
REMARK  410  A    between atoms: _845  and  _846
REMARK  411  A    between atoms: _849  and  _850
REMARK  412  A    between atoms: _850  and  _851
REMARK  413  A    between atoms: _850  and  _853
REMARK  414  A    between atoms: _853  and  _854
REMARK  415  A    between atoms: _854  and  _855
REMARK  416  A    between atoms: _858  and  _859
REMARK  417  A    between atoms: _859  and  _860
REMARK  418  A    between atoms: _863  and  _864
REMARK  419  A    between atoms: _864  and  _865
REMARK  420  A    between atoms: _867  and  _868
REMARK  421  A    between atoms: _868  and  _869
REMARK  422  A    between atoms: _872  and  _873
REMARK  423  A    between atoms: _873  and  _874
REMARK  424  A    between atoms: _873  and  _876
REMARK  425  A    between atoms: _876  and  _877
REMARK  426  A    between atoms: _880  and  _881
REMARK  427  A    between atoms: _881  and  _882
REMARK  428  A    between atoms: _881  and  _884
REMARK  429  A    between atoms: _884  and  _885
REMARK  430  A    between atoms: _888  and  _889
REMARK  431  A    between atoms: _889  and  _890
REMARK  432  A    between atoms: _889  and  _892
REMARK  433  A    between atoms: _894  and  _895
REMARK  434  A    between atoms: _895  and  _896
REMARK  435  A    between atoms: _895  and  _898
REMARK  436  A    between atoms: _898  and  _899
REMARK  437  A    between atoms: _899  and  _900
REMARK  438  A    between atoms: _902  and  _903
REMARK  439  A    between atoms: _903  and  _904
REMARK  440  A    between atoms: _903  and  _906
REMARK  441  A    between atoms: _906  and  _907
REMARK  442  A    between atoms: _910  and  _911
REMARK  443  A    between atoms: _911  and  _912
REMARK  444  A    between atoms: _914  and  _915
REMARK  445  A    between atoms: _915  and  _916
REMARK  446  A    between atoms: _915  and  _918
REMARK  447  A    between atoms: _918  and  _919
REMARK  448  A    between atoms: _919  and  _920
REMARK  449  A    between atoms: _923  and  _924
REMARK  450  A    between atoms: _924  and  _925
REMARK  451  A    between atoms: _924  and  _927
REMARK  452  A    between atoms: _927  and  _928
REMARK  453  A    between atoms: _934  and  _935
REMARK  454  A    between atoms: _935  and  _936
REMARK  455  A    between atoms: _938  and  _939
REMARK  456  A    between atoms: _939  and  _940
REMARK  457  A    between atoms: _939  and  _942
REMARK  458  A    between atoms: _945  and  _946
REMARK  459  A    between atoms: _946  and  _947
REMARK  460  A    between atoms: _949  and  _950
REMARK  461  A    between atoms: _950  and  _951
REMARK  462  A    between atoms: _950  and  _953
REMARK  463  A    between atoms: _953  and  _954
REMARK  464  A    between atoms: _960  and  _961
REMARK  465  A    between atoms: _961  and  _962
REMARK  466  A    between atoms: _961  and  _964
REMARK  467  A    between atoms: _964  and  _965
REMARK  468  A    between atoms: _972  and  _973
REMARK  469  A    between atoms: _973  and  _974
REMARK  470  A    between atoms: _973  and  _976
REMARK  471  A    between atoms: _978  and  _979
REMARK  472  A    between atoms: _979  and  _980
REMARK  473  A    between atoms: _983  and  _984
REMARK  474  A    between atoms: _984  and  _985
REMARK  475  A    between atoms: _984  and  _987
REMARK  476  A    between atoms: _987  and  _988
REMARK  477  A    between atoms: _995  and  _996
REMARK  478  A    between atoms: _996  and  _997
REMARK  479  A    between atoms: _996  and  _999
REMARK  480  A    between atoms: _999  and  _1000
REMARK  481  A    between atoms: _1003  and  _1004
REMARK  482  A    between atoms: _1004  and  _1005
REMARK  483  A    between atoms: _1004  and  _1007
REMARK  484  A    between atoms: _1010  and  _1011
REMARK  485  A    between atoms: _1011  and  _1012
REMARK  486  A    between atoms: _1015  and  _1016
REMARK  487  A    between atoms: _1016  and  _1017
REMARK  488  A    between atoms: _1016  and  _1019
REMARK  489  A    between atoms: _1019  and  _1020
REMARK  490  A    between atoms: _1020  and  _1021
REMARK  491  A    between atoms: _1024  and  _1025
REMARK  492  A    between atoms: _1025  and  _1026
REMARK  493  A    between atoms: _1025  and  _1028
REMARK  494  A    between atoms: _1028  and  _1029
REMARK  495  A    between atoms: _1029  and  _1030
REMARK  496  A    between atoms: _1030  and  _1031
REMARK  497  A    between atoms: _1033  and  _1034
REMARK  498  A    between atoms: _1034  and  _1035
REMARK  499  A    between atoms: _1034  and  _1037
REMARK  500  A    between atoms: _1040  and  _1041
REMARK  501  A    between atoms: _1041  and  _1042
REMARK  502  A    between atoms: _1041  and  _1044
REMARK  503  A    between atoms: _1047  and  _1048
REMARK  504  A    between atoms: _1048  and  _1049
REMARK  505  A    between atoms: _1048  and  _1051
REMARK  506  A    between atoms: _1054  and  _1055
REMARK  507  A    between atoms: _1055  and  _1056
REMARK  508  A    between atoms: _1055  and  _1058
REMARK  509  A    between atoms: _1058  and  _1059
REMARK  510  A    between atoms: _1062  and  _1063
REMARK  511  A    between atoms: _1063  and  _1064
REMARK  512  A    between atoms: _1063  and  _1066
REMARK  513  A    between atoms: _1069  and  _1070
REMARK  514  A    between atoms: _1070  and  _1071
REMARK  515  A    between atoms: _1070  and  _1073
REMARK  516  A    between atoms: _1073  and  _1074
REMARK  517  A    between atoms: _1074  and  _1075
REMARK  518  A    between atoms: _1075  and  _1076
REMARK  519  A    between atoms: _1078  and  _1079
REMARK  520  A    between atoms: _1079  and  _1080
REMARK  521  A    between atoms: _1079  and  _1082
REMARK  522  A    between atoms: _1082  and  _1083
REMARK  523  A    between atoms: _1088  and  _1089
REMARK  524  A    between atoms: _1089  and  _1090
REMARK  525  A    between atoms: _1089  and  _1092
REMARK  526  A    between atoms: _1092  and  _1093
REMARK  527  A    between atoms: _1096  and  _1097
REMARK  528  A    between atoms: _1097  and  _1098
REMARK  529  A    between atoms: _1097  and  _1100
REMARK  530  A    between atoms: _1100  and  _1101
REMARK  531  A    between atoms: _1104  and  _1105
REMARK  532  A    between atoms: _1105  and  _1106
REMARK  533  A    between atoms: _1105  and  _1108
REMARK  534  A    between atoms: _1108  and  _1109
REMARK  535  A    between atoms: _1112  and  _1113
REMARK  536  A    between atoms: _1113  and  _1114
REMARK  537  A    between atoms: _1113  and  _1116
REMARK  538  A    between atoms: _1116  and  _1117
REMARK  539  A    between atoms: _1117  and  _1118
REMARK  540  A    between atoms: _1121  and  _1122
REMARK  541  A    between atoms: _1122  and  _1123
REMARK  542  A    between atoms: _1122  and  _1125
REMARK  543  A    between atoms: _1125  and  _1126
REMARK  544  A    between atoms: _1126  and  _1127
REMARK  545  A    between atoms: _1130  and  _1131
REMARK  546  A    between atoms: _1131  and  _1132
REMARK  547  A    between atoms: _1131  and  _1134
REMARK  548  A    between atoms: _1134  and  _1135
REMARK  549  A    between atoms: _1142  and  _1143
REMARK  550  A    between atoms: _1143  and  _1144
REMARK  551  A    between atoms: _1147  and  _1148
REMARK  552  A    between atoms: _1148  and  _1149
REMARK  553  A    between atoms: _1148  and  _1151
REMARK  554  A    between atoms: _1151  and  _1152
REMARK  555  A    between atoms: _1161  and  _1162
REMARK  556  A    between atoms: _1162  and  _1163
REMARK  557  A    between atoms: _1162  and  _1165
REMARK  558  A    between atoms: _1165  and  _1166
REMARK  559  A    between atoms: _1166  and  _1167
REMARK  560  A    between atoms: _1170  and  _1171
REMARK  561  A    between atoms: _1171  and  _1172
REMARK  562  A    between atoms: _1171  and  _1174
REMARK  563  A    between atoms: _1176  and  _1177
REMARK  564  A    between atoms: _1177  and  _1178
REMARK  565  A    between atoms: _1177  and  _1180
REMARK  566  A    between atoms: _1182  and  _1183
REMARK  567  A    between atoms: _1183  and  _1184
REMARK  568  A    between atoms: _1187  and  _1188
REMARK  569  A    between atoms: _1188  and  _1189
REMARK  570  A    between atoms: _1191  and  _1192
REMARK  571  A    between atoms: _1192  and  _1193
REMARK  572  A    between atoms: _1195  and  _1196
REMARK  573  A    between atoms: _1196  and  _1197
REMARK  574  A    between atoms: _1196  and  _1199
REMARK  575  A    between atoms: _1201  and  _1202
REMARK  576  A    between atoms: _1202  and  _1203
REMARK  577  A    between atoms: _1202  and  _1205
REMARK  578  A    between atoms: _1205  and  _1206
REMARK  579  A    between atoms: _1212  and  _1213
REMARK  580  A    between atoms: _1213  and  _1214
REMARK  581  A    between atoms: _1213  and  _1216
REMARK  582  A    between atoms: _1219  and  _1220
REMARK  583  A    between atoms: _1220  and  _1221
REMARK  584  A    between atoms: _1220  and  _1223
REMARK  585  A    between atoms: _1226  and  _1227
REMARK  586  A    between atoms: _1227  and  _1228
REMARK  587  A    between atoms: _1227  and  _1230
REMARK  588  A    between atoms: _1230  and  _1231
REMARK  589  A    between atoms: _1231  and  _1232
REMARK  590  A    between atoms: _1232  and  _1233
REMARK  591  A    between atoms: _1237  and  _1238
REMARK  592  A    between atoms: _1238  and  _1239
REMARK  593  A    between atoms: _1238  and  _1241
REMARK  594  A    between atoms: _1244  and  _1245
REMARK  595  A    between atoms: _1245  and  _1246
REMARK  596  A    between atoms: _1245  and  _1248
REMARK  597  A    between atoms: _1248  and  _1249
REMARK  598  A    between atoms: _1252  and  _1253
REMARK  599  A    between atoms: _1253  and  _1254
REMARK  600  A    between atoms: _1253  and  _1256
REMARK  601  A    between atoms: _1259  and  _1260
REMARK  602  A    between atoms: _1260  and  _1261
REMARK  603  A    between atoms: _1263  and  _1264
REMARK  604  A    between atoms: _1264  and  _1265
REMARK  605  A    between atoms: _1264  and  _1267
REMARK  606  A    between atoms: _1267  and  _1268
REMARK  607  A    between atoms: _1268  and  _1269
REMARK  608  A    between atoms: _1273  and  _1274
REMARK  609  A    between atoms: _1279  and  _1280
REMARK  610  A    between atoms: _1280  and  _1285
REMARK  611  A    between atoms: _1285  and  _1286
REMARK  612  A    between atoms: _1286  and  _1287
REMARK  613  A    between atoms: _1287  and  _1289
REMARK  614  A    between atoms: _1292  and  _1293
REMARK  615  A    between atoms: _1293  and  _1294
REMARK  616  A    between atoms: _1296  and  _1297
REMARK  617  A    between atoms: _1297  and  _1298
REMARK  618  A    between atoms: _1297  and  _1300
REMARK  619  A    between atoms: _1300  and  _1301
REMARK  620  A    between atoms: _1301  and  _1302
REMARK  621  A    between atoms: _1302  and  _1303
REMARK  622  A    between atoms: _1307  and  _1308
REMARK  623  A    between atoms: _1308  and  _1309
REMARK  624  A    between atoms: _1311  and  _1312
REMARK  625  A    between atoms: _1312  and  _1313
REMARK  626  A    between atoms: _1312  and  _1315
REMARK  627  A    between atoms: _1318  and  _1319
REMARK  628  A    between atoms: _1319  and  _1320
REMARK  629  A    between atoms: _1319  and  _1322
REMARK  630  A    between atoms: _1322  and  _1323
REMARK  631  A    between atoms: _1323  and  _1324
REMARK  632  A    between atoms: _1324  and  _1325
REMARK  633  A    between atoms: _1327  and  _1328
REMARK  634  A    between atoms: _1328  and  _1329
REMARK  635  A    between atoms: _1328  and  _1331
REMARK  636  A    between atoms: _1334  and  _1335
REMARK  637  A    between atoms: _1335  and  _1336
REMARK  638  A    between atoms: _1335  and  _1338
REMARK  639  A    between atoms: _1338  and  _1339
REMARK  640  A    between atoms: _1342  and  _1343
REMARK  641  A    between atoms: _1343  and  _1344
REMARK  642  A    between atoms: _1343  and  _1346
REMARK  643  A    between atoms: _1346  and  _1347
REMARK  644  A    between atoms: _1350  and  _1351
REMARK  645  A    between atoms: _1351  and  _1352
REMARK  646  A    between atoms: _1351  and  _1354
REMARK  647  A    between atoms: _1354  and  _1355
REMARK  648  A    between atoms: _1360  and  _1361
REMARK  649  A    between atoms: _1361  and  _1362
REMARK  650  A    between atoms: _1361  and  _1364
REMARK  651  A    between atoms: _1364  and  _1365
REMARK  652  A    between atoms: _1368  and  _1369
REMARK  653  A    between atoms: _1369  and  _1370
REMARK  654  A    between atoms: _1369  and  _1372
REMARK  655  A    between atoms: _1372  and  _1373
REMARK  656  A    between atoms: _1373  and  _1374
REMARK  657  A    between atoms: _1374  and  _1375
REMARK  658  A    between atoms: _1377  and  _1378
REMARK  659  A    between atoms: _1378  and  _1379
REMARK  660  A    between atoms: _1378  and  _1381
REMARK  661  A    between atoms: _1381  and  _1382
REMARK  662  A    between atoms: _1382  and  _1383
REMARK  663  A    between atoms: _1386  and  _1387
REMARK  664  A    between atoms: _1387  and  _1388
REMARK  665  A    between atoms: _1387  and  _1390
REMARK  666  A    between atoms: _1390  and  _1391
REMARK  667  A    between atoms: _1394  and  _1395
REMARK  668  A    between atoms: _1395  and  _1396
REMARK  669  A    between atoms: _1395  and  _1398
REMARK  670  A    between atoms: _1398  and  _1399
REMARK  671  A    between atoms: _1399  and  _1400
REMARK  672  A    between atoms: _1403  and  _1404
REMARK  673  A    between atoms: _1404  and  _1405
REMARK  674  A    between atoms: _1404  and  _1407
REMARK  675  A    between atoms: _1410  and  _1411
REMARK  676  A    between atoms: _1411  and  _1412
REMARK  677  A    between atoms: _1411  and  _1414
REMARK  678  A    between atoms: _1414  and  _1415
REMARK  679  A    between atoms: _1415  and  _1416
REMARK  680  A    between atoms: _1419  and  _1420
REMARK  681  A    between atoms: _1420  and  _1421
REMARK  682  A    between atoms: _1420  and  _1423
REMARK  683  A    between atoms: _1423  and  _1424
REMARK  684  A    between atoms: _1431  and  _1432
REMARK  685  A    between atoms: _1432  and  _1433
REMARK  686  A    between atoms: _1432  and  _1435
REMARK  687  A    between atoms: _1435  and  _1436
REMARK  688  A    between atoms: _1439  and  _1440
REMARK  689  A    between atoms: _1440  and  _1441
REMARK  690  A    between atoms: _1440  and  _1443
REMARK  691  A    between atoms: _1443  and  _1444
REMARK  692  A    between atoms: _1444  and  _1445
REMARK  693  A    between atoms: _1448  and  _1449
REMARK  694  A    between atoms: _1449  and  _1450
REMARK  695  A    between atoms: _1449  and  _1452
REMARK  696  A    between atoms: _1452  and  _1453
REMARK  697  A    between atoms: _1453  and  _1454
REMARK  698  A    between atoms: _1457  and  _1458
REMARK  699  A    between atoms: _1458  and  _1459
REMARK  700  A    between atoms: _1458  and  _1461
REMARK  701  A    between atoms: _1461  and  _1462
REMARK  702  A    between atoms: _1462  and  _1463
REMARK  703  A    between atoms: _1463  and  _1464
REMARK  704  A    between atoms: _1468  and  _1469
REMARK  705  A    between atoms: _1469  and  _1470
REMARK  706  A    between atoms: _1469  and  _1472
REMARK  707  A    between atoms: _1472  and  _1473
REMARK  708  A    between atoms: _1473  and  _1474
REMARK  709  A    between atoms: _1474  and  _1475
REMARK  710  A    between atoms: _1479  and  _1480
REMARK  711  A    between atoms: _1480  and  _1481
REMARK  712  A    between atoms: _1480  and  _1483
REMARK  713  A    between atoms: _1483  and  _1484
REMARK  714  A    between atoms: _1487  and  _1488
REMARK  715  A    between atoms: _1488  and  _1489
REMARK  716  A    between atoms: _1488  and  _1491
REMARK  717  A    between atoms: _1491  and  _1492
REMARK  718  A    between atoms: _1492  and  _1493
REMARK  719  A    between atoms: _1493  and  _1494
REMARK  720  A    between atoms: _1496  and  _1497
REMARK  721  A    between atoms: _1497  and  _1498
REMARK  722  A    between atoms: _1497  and  _1500
REMARK  723  A    between atoms: _1500  and  _1501
REMARK  724  A    between atoms: _1501  and  _1502
REMARK  725  A    between atoms: _1505  and  _1506
REMARK  726  A    between atoms: _1506  and  _1507
REMARK  727  A    between atoms: _1506  and  _1509
REMARK  728  A    between atoms: _1509  and  _1510
REMARK  729  A    between atoms: _1513  and  _1514
REMARK  730  A    between atoms: _1514  and  _1515
REMARK  731  A    between atoms: _1514  and  _1517
REMARK  732  A    between atoms: _1520  and  _1521
REMARK  733  A    between atoms: _1521  and  _1522
REMARK  734  A    between atoms: _1521  and  _1524
REMARK  735  A    between atoms: _1524  and  _1525
REMARK  736  A    between atoms: _1525  and  _1526
REMARK  737  A    between atoms: _1526  and  _1527
REMARK  738  A    between atoms: _1529  and  _1530
REMARK  739  A    between atoms: _1530  and  _1531
REMARK  740  A    between atoms: _1530  and  _1533
REMARK  741  A    between atoms: _1533  and  _1534
REMARK  742  A    between atoms: _1534  and  _1535
REMARK  743  A    between atoms: _1535  and  _1536
REMARK  744  A    between atoms: _1538  and  _1539
REMARK  745  A    between atoms: _1539  and  _1540
REMARK  746  A    between atoms: _1539  and  _1542
REMARK  747  A    between atoms: _1542  and  _1543
REMARK  748  A    between atoms: _1548  and  _1549
REMARK  749  A    between atoms: _1549  and  _1550
REMARK  750  A    between atoms: _1549  and  _1552
REMARK  751  A    between atoms: _1554  and  _1555
REMARK  752  A    between atoms: _1555  and  _1556
REMARK  753  A    between atoms: _1555  and  _1558
REMARK  754  A    between atoms: _1558  and  _1559
REMARK  755  A    between atoms: _1559  and  _1560
REMARK  756  A    between atoms: _1563  and  _1564
REMARK  757  A    between atoms: _1564  and  _1565
REMARK  758  A    between atoms: _1564  and  _1567
REMARK  759  A    between atoms: _1567  and  _1568
REMARK  760  A    between atoms: _1574  and  _1575
REMARK  761  A    between atoms: _1575  and  _1576
REMARK  762  A    between atoms: _1575  and  _1578
REMARK  763  A    between atoms: _1578  and  _1579
REMARK  764  A    between atoms: _1582  and  _1583
REMARK  765  A    between atoms: _1583  and  _1584
REMARK  766  A    between atoms: _1586  and  _1587
REMARK  767  A    between atoms: _1587  and  _1588
REMARK  768  A    between atoms: _1587  and  _1590
REMARK  769  A    between atoms: _1590  and  _1591
REMARK  770  A    between atoms: _1599  and  _1600
REMARK  771  A    between atoms: _1605  and  _1606
REMARK  772  A    between atoms: _1606  and  _1607
REMARK  773  A    between atoms: _1606  and  _1609
REMARK  774  A    between atoms: _1609  and  _1610
REMARK  775  A    between atoms: _1613  and  _1614
REMARK  776  A    between atoms: _1614  and  _1615
REMARK  777  A    between atoms: _1614  and  _1617
REMARK  778  A    between atoms: _1620  and  _1621
REMARK  779  A    between atoms: _1621  and  _1622
REMARK  780  A    between atoms: _1621  and  _1624
REMARK  781  A    between atoms: _1624  and  _1625
REMARK  782  A    between atoms: _1628  and  _1629
REMARK  783  A    between atoms: _1629  and  _1630
REMARK  784  A    between atoms: _1629  and  _1632
REMARK  785  A    between atoms: _1632  and  _1633
REMARK  786  A    between atoms: _1639  and  _1640
REMARK  787  A    between atoms: _1640  and  _1641
REMARK  788  A    between atoms: _1640  and  _1643
REMARK  789  A    between atoms: _1646  and  _1647
REMARK  790  A    between atoms: _1647  and  _1648
REMARK  791  A    between atoms: _1647  and  _1650
REMARK  792  A    between atoms: _1650  and  _1651
REMARK  793  A    between atoms: _1651  and  _1652
REMARK  794  A    between atoms: _1655  and  _1656
REMARK  795  A    between atoms: _1656  and  _1657
REMARK  796  A    between atoms: _1656  and  _1659
REMARK  797  A    between atoms: _1659  and  _1660
REMARK  798  A    between atoms: _1660  and  _1661
REMARK                            x       y       z     vdW  Elec       q    Type
REMARK                         _______ _______ _______ _____ _____    ______ ____
ROOT
ATOM      1  CA  ARG A  21      -9.126 -19.628  45.087  0.00  0.00    +0.173 C 
ENDROOT
BRANCH   1   4
ATOM      2  C   ARG A  20     -11.525 -19.572  45.516  0.00  0.00    +0.262 C 
ATOM      3  O   ARG A  20     -11.493 -18.390  45.831  0.00  0.00    -0.271 OA
ATOM      4  N   ARG A  21     -10.443 -20.264  45.110  0.00  0.00    -0.196 NA
BRANCH   2   5
ATOM      5  CA  ARG A  20     -12.842 -20.328  45.552  0.00  0.00    +0.173 C 
BRANCH   5   7
ATOM      6  C   GLU A  19     -12.928 -20.930  43.205  0.00  0.00    +0.262 C 
ATOM      7  N   ARG A  20     -12.920 -21.331  44.491  0.00  0.00    -0.196 NA
ATOM      8  O   GLU A  19     -12.814 -19.742  42.879  0.00  0.00    -0.271 OA
BRANCH   6   9
ATOM      9  CA  GLU A  19     -13.097 -22.005  42.111  0.00  0.00    +0.173 C 
BRANCH   9  12
ATOM     10  C   GLU A  18     -10.873 -22.984  42.430  0.00  0.00    +0.262 C 
ATOM     11  O   GLU A  18     -10.323 -21.877  42.507  0.00  0.00    -0.271 OA
ATOM     12  N   GLU A  19     -12.205 -23.141  42.282  0.00  0.00    -0.196 NA
BRANCH  10  13
ATOM     13  CA  GLU A  18     -10.064 -24.249  42.562  0.00  0.00    +0.173 C 
BRANCH  13  15
ATOM     14  C   LEU A  17      -9.006 -24.631  40.367  0.00  0.00    +0.262 C 
ATOM     15  N   GLU A  18      -8.923 -24.240  41.646  0.00  0.00    -0.196 NA
ATOM     16  O   LEU A  17     -10.056 -25.021  39.853  0.00  0.00    -0.271 OA
BRANCH  14  17
ATOM     17  CA  LEU A  17      -7.715 -24.637  39.542  0.00  0.00    +0.173 C 
BRANCH  17  19
ATOM     18  C   TYR A  16      -6.145 -22.822  40.057  0.00  0.00    +0.262 C 
ATOM     19  N   LEU A  17      -6.629 -24.054  40.326  0.00  0.00    -0.196 NA
ATOM     20  O   TYR A  16      -6.549 -22.128  39.113  0.00  0.00    -0.271 OA
BRANCH  18  21
ATOM     21  CA  TYR A  16      -5.118 -22.236  41.030  0.00  0.00    +0.177 C 
BRANCH  21  24
ATOM     22  C   GLU A  15      -5.452 -23.521  43.110  0.00  0.00    +0.262 C 
ATOM     23  O   GLU A  15      -6.563 -23.028  43.301  0.00  0.00    -0.271 OA
ATOM     24  N   TYR A  16      -4.680 -23.214  42.042  0.00  0.00    -0.196 NA
BRANCH  22  25
ATOM     25  CA  GLU A  15      -4.874 -24.523  44.127  0.00  0.00    +0.173 C 
BRANCH  25  27
ATOM     26  C   THR A  14      -4.298 -26.203  42.450  0.00  0.00    +0.264 C 
ATOM     27  N   GLU A  15      -3.895 -25.403  43.457  0.00  0.00    -0.196 NA
ATOM     28  O   THR A  14      -5.473 -26.252  42.078  0.00  0.00    -0.271 OA
BRANCH  26  29
ATOM     29  CA  THR A  14      -3.246 -27.043  41.707  0.00  0.00    +0.203 C 
BRANCH  29  30
ATOM     30  CB  THR A  14      -3.594 -28.541  41.770  0.00  0.00    +0.181 C 
ATOM     31  OG1 THR A  14      -3.532 -28.970  43.134  0.00  0.00    -0.221 OA
ATOM     32  CG2 THR A  14      -2.687 -29.395  40.882  0.00  0.00    +0.038 C 
ENDBRANCH  29  30
BRANCH  29  34
ATOM     33  C   GLN A  13      -1.230 -25.640  41.794  0.00  0.00    +0.262 C 
ATOM     34  N   THR A  14      -1.864 -26.783  42.143  0.00  0.00    -0.194 NA
ATOM     35  O   GLN A  13      -1.785 -24.736  41.159  0.00  0.00    -0.271 OA
BRANCH  33  36
ATOM     36  CA  GLN A  13       0.225 -25.462  42.250  0.00  0.00    +0.173 C 
BRANCH  36  39
ATOM     37  C   ASP A  12       1.334 -27.096  43.677  0.00  0.00    +0.262 C 
ATOM     38  O   ASP A  12       1.109 -26.429  44.691  0.00  0.00    -0.271 OA
ATOM     39  N   GLN A  13       0.924 -26.730  42.447  0.00  0.00    -0.196 NA
BRANCH  37  40
ATOM     40  CA  ASP A  12       2.100 -28.415  43.787  0.00  0.00    +0.184 C 
BRANCH  40  42
ATOM     41  C   GLU A  11       1.596 -29.890  41.889  0.00  0.00    +0.262 C 
ATOM     42  N   ASP A  12       2.423 -29.007  42.484  0.00  0.00    -0.196 NA
ATOM     43  O   GLU A  11       0.518 -30.238  42.381  0.00  0.00    -0.271 OA
BRANCH  41  44
ATOM     44  CA  GLU A  11       2.015 -30.480  40.537  0.00  0.00    +0.173 C 
BRANCH  44  47
ATOM     45  C   LYS A  10       2.372 -28.374  39.321  0.00  0.00    +0.262 C 
ATOM     46  O   LYS A  10       1.300 -27.908  39.719  0.00  0.00    -0.271 OA
ATOM     47  N   GLU A  11       2.820 -29.588  39.700  0.00  0.00    -0.196 NA
BRANCH  45  48
ATOM     48  CA  LYS A  10       3.272 -27.545  38.386  0.00  0.00    +0.173 C 
BRANCH  48  50
ATOM     49  C   LEU A   9       1.464 -27.150  36.738  0.00  0.00    +0.262 C 
ATOM     50  N   LYS A  10       2.366 -26.669  37.621  0.00  0.00    -0.196 NA
ATOM     51  O   LEU A   9       1.370 -28.344  36.433  0.00  0.00    -0.271 OA
BRANCH  49  52
ATOM     52  CA  LEU A   9       0.490 -26.141  36.165  0.00  0.00    +0.173 C 
BRANCH  52  54
ATOM     53  C   HIS A   8       0.856 -26.272  33.773  0.00  0.00    +0.262 C 
ATOM     54  N   LEU A   9       0.033 -26.408  34.802  0.00  0.00    -0.196 NA
ATOM     55  O   HIS A   8       2.045 -26.087  33.902  0.00  0.00    -0.271 OA
BRANCH  53  56
ATOM     56  CA  HIS A   8       0.233 -26.312  32.413  0.00  0.00    +0.179 C 
BRANCH  56  59
ATOM     57  C   LEU A   7      -0.917 -24.212  32.280  0.00  0.00    +0.262 C 
ATOM     58  O   LEU A   7      -1.938 -24.671  32.805  0.00  0.00    -0.271 OA
ATOM     59  N   HIS A   8       0.157 -24.933  32.020  0.00  0.00    -0.196 NA
BRANCH  57  60
ATOM     60  CA  LEU A   7      -0.883 -22.740  31.879  0.00  0.00    +0.173 C 
BRANCH  60  62
ATOM     61  C   ILE A   6      -1.562 -22.448  29.551  0.00  0.00    +0.262 C 
ATOM     62  N   LEU A   7      -1.880 -22.495  30.850  0.00  0.00    -0.196 NA
ATOM     63  O   ILE A   6      -0.412 -22.604  29.124  0.00  0.00    -0.271 OA
BRANCH  61  64
ATOM     64  CA  ILE A   6      -2.711 -22.203  28.591  0.00  0.00    +0.173 C 
BRANCH  64  67
ATOM     65  C   VAL A   5      -3.138 -19.824  28.233  0.00  0.00    +0.262 C 
ATOM     66  O   VAL A   5      -4.022 -19.788  29.100  0.00  0.00    -0.271 OA
ATOM     67  N   ILE A   6      -2.459 -20.934  27.927  0.00  0.00    -0.196 NA
BRANCH  65  68
ATOM     68  CA  VAL A   5      -2.795 -18.569  27.465  0.00  0.00    +0.173 C 
BRANCH  68  70
ATOM     69  C   LYS A   4      -4.120 -18.294  25.429  0.00  0.00    +0.262 C 
ATOM     70  N   VAL A   5      -4.007 -18.174  26.755  0.00  0.00    -0.196 NA
ATOM     71  O   LYS A   4      -3.184 -18.667  24.702  0.00  0.00    -0.271 OA
BRANCH  69  72
ATOM     72  CA  LYS A   4      -5.462 -17.899  24.785  0.00  0.00    +0.173 C 
BRANCH  72  75
ATOM     73  C   THR A   3      -5.688 -15.669  23.828  0.00  0.00    +0.264 C 
ATOM     74  O   THR A   3      -6.567 -15.327  24.622  0.00  0.00    -0.271 OA
ATOM     75  N   LYS A   4      -5.138 -16.863  23.811  0.00  0.00    -0.196 NA
BRANCH  73  76
ATOM     76  CA  THR A   3      -5.189 -14.708  22.780  0.00  0.00    +0.203 C 
BRANCH  76  78
ATOM     77  C   GLY A   2      -6.388 -13.670  20.906  0.00  0.00    +0.264 C 
ATOM     78  N   THR A   3      -6.275 -13.930  22.221  0.00  0.00    -0.194 NA
ATOM     79  O   GLY A   2      -5.642 -14.153  20.044  0.00  0.00    -0.271 OA
BRANCH  77  80
ATOM     80  CA  GLY A   2      -7.512 -12.750  20.515  0.00  0.00    +0.201 C 
BRANCH  80  83
ATOM     81  C   ARG A   1      -9.081 -12.961  18.677  0.00  0.00    +0.262 C 
ATOM     82  O   ARG A   1     -10.041 -13.109  19.452  0.00  0.00    -0.271 OA
ATOM     83  N   GLY A   2      -7.818 -12.797  19.093  0.00  0.00    -0.194 NA
BRANCH  81  84
ATOM     84  CA  ARG A   1      -9.326 -12.900  17.174  0.00  0.00    +0.173 C 
BRANCH  84  86
ATOM     85  C   UNK A   0     -10.601 -14.307  15.580  0.00  0.00    +0.264 C 
ATOM     86  N   ARG A   1     -10.299 -13.960  16.853  0.00  0.00    -0.196 NA
ATOM     87  O   UNK A   0     -10.106 -13.760  14.595  0.00  0.00    -0.271 OA
BRANCH  85  88
ATOM     88  C   UNK A   0     -11.547 -15.473  15.389  0.00  0.00    +0.201 C 
BRANCH  88  92
ATOM     89  C   UNK A   0     -10.408 -18.294  17.629  0.00  0.00    +0.096 C 
ATOM     90  C   UNK A   0     -11.030 -17.003  17.142  0.00  0.00    +0.242 C 
ATOM     91  O   UNK A   0     -11.582 -16.267  17.956  0.00  0.00    -0.273 OA
ATOM     92  N   UNK A   0     -10.927 -16.706  15.867  0.00  0.00    -0.195 NA
ENDBRANCH  88  92
ENDBRANCH  85  88
ENDBRANCH  84  86
BRANCH  84  93
ATOM     93  CB  ARG A   1      -9.883 -11.501  16.835  0.00  0.00    +0.035 C 
BRANCH  93  94
ATOM     94  CG  ARG A   1      -8.837 -10.372  16.924  0.00  0.00    +0.049 C 
BRANCH  94  95
ATOM     95  CD  ARG A   1      -9.483  -8.983  17.086  0.00  0.00    +0.220 C 
BRANCH  95  96
ATOM     96  NE  ARG A   1     -10.378  -8.902  18.245  0.00  0.00    -0.087 NA
ATOM     97  CZ  ARG A   1     -11.707  -8.827  18.158  0.00  0.00    +0.535 C 
ATOM     98  NH2 ARG A   1     -12.449  -8.748  19.259  0.00  0.00    +0.135 NA
ATOM     99  NH1 ARG A   1     -12.304  -8.829  16.969  0.00  0.00    +0.135 NA
ENDBRANCH  95  96
ENDBRANCH  94  95
ENDBRANCH  93  94
ENDBRANCH  84  93
ENDBRANCH  81  84
ENDBRANCH  80  83
ENDBRANCH  77  80
ENDBRANCH  76  78
BRANCH  76 100
ATOM    100  CB  THR A   3      -4.152 -13.732  23.368  0.00  0.00    +0.181 C 
ATOM    101  CG2 THR A   3      -2.970 -14.458  24.050  0.00  0.00    +0.038 C 
ATOM    102  OG1 THR A   3      -3.615 -12.957  22.297  0.00  0.00    -0.221 OA
ENDBRANCH  76 100
ENDBRANCH  73  76
ENDBRANCH  72  75
BRANCH  72 103
ATOM    103  CB  LYS A   4      -6.069 -19.098  24.034  0.00  0.00    +0.031 C 
BRANCH 103 104
ATOM    104  CG  LYS A   4      -6.319 -20.361  24.820  0.00  0.00    +0.004 C 
BRANCH 104 105
ATOM    105  CD  LYS A   4      -6.944 -21.440  23.902  0.00  0.00    +0.021 C 
BRANCH 105 106
ATOM    106  CE  LYS A   4      -8.376 -21.172  23.507  0.00  0.00    +0.109 C 
ATOM    107  NZ  LYS A   4      -8.933 -22.303  22.703  0.00  0.00    -0.131 NA
ENDBRANCH 105 106
ENDBRANCH 104 105
ENDBRANCH 103 104
ENDBRANCH  72 103
ENDBRANCH  69  72
ENDBRANCH  68  70
BRANCH  68 108
ATOM    108  CB  VAL A   5      -2.295 -17.467  28.410  0.00  0.00    +0.029 C 
ATOM    109  CG2 VAL A   5      -1.093 -17.970  29.206  0.00  0.00    +0.002 C 
ATOM    110  CG1 VAL A   5      -1.943 -16.193  27.639  0.00  0.00    +0.002 C 
ENDBRANCH  68 108
ENDBRANCH  65  68
ENDBRANCH  64  67
BRANCH  64 111
ATOM    111  CB  ILE A   6      -2.833 -23.370  27.576  0.00  0.00    +0.029 C 
ATOM    112  CG2 ILE A   6      -3.137 -24.667  28.348  0.00  0.00    +0.002 C 
BRANCH 111 113
ATOM    113  CG1 ILE A   6      -3.909 -23.047  26.484  0.00  0.00    +0.002 C 
ATOM    114  CD1 ILE A   6      -3.862 -24.038  25.259  0.00  0.00    +0.000 C 
ENDBRANCH 111 113
ENDBRANCH  64 111
ENDBRANCH  61  64
ENDBRANCH  60  62
BRANCH  60 115
ATOM    115  CB  LEU A   7      -1.192 -21.872  33.103  0.00  0.00    +0.031 C 
BRANCH 115 116
ATOM    116  CG  LEU A   7      -1.251 -20.378  32.828  0.00  0.00    +0.002 C 
ATOM    117  CD2 LEU A   7      -1.692 -19.657  34.091  0.00  0.00    +0.000 C 
ATOM    118  CD1 LEU A   7       0.084 -19.870  32.316  0.00  0.00    +0.000 C 
ENDBRANCH 115 116
ENDBRANCH  60 115
ENDBRANCH  57  60
ENDBRANCH  56  59
BRANCH  56 119
ATOM    119  CB  HIS A   8       1.083 -27.109  31.406  0.00  0.00    +0.079 C 
BRANCH 119 120
ATOM    120  CG  HIS A   8       0.553 -27.065  29.990  0.00  0.00    +0.082 A 
ATOM    121  CD2 HIS A   8      -0.252 -27.943  29.297  0.00  0.00    +0.115 A 
ATOM    122  NE2 HIS A   8      -0.443 -27.437  28.084  0.00  0.00    -0.221 NA
ATOM    123  CE1 HIS A   8       0.224 -26.293  27.983  0.00  0.00    +0.199 A 
ATOM    124  ND1 HIS A   8       0.836 -26.070  29.142  0.00  0.00    -0.227 NA
ENDBRANCH 119 120
ENDBRANCH  56 119
ENDBRANCH  53  56
ENDBRANCH  52  54
BRANCH  52 125
ATOM    125  CB  LEU A   9      -0.706 -25.993  37.116  0.00  0.00    +0.031 C 
BRANCH 125 126
ATOM    126  CG  LEU A   9      -1.724 -24.904  36.743  0.00  0.00    +0.002 C 
ATOM    127  CD2 LEU A   9      -2.866 -24.897  37.743  0.00  0.00    +0.000 C 
ATOM    128  CD1 LEU A   9      -1.061 -23.507  36.736  0.00  0.00    +0.000 C 
ENDBRANCH 125 126
ENDBRANCH  52 125
ENDBRANCH  49  52
ENDBRANCH  48  50
BRANCH  48 129
ATOM    129  CB  LYS A  10       4.227 -26.694  39.235  0.00  0.00    +0.031 C 
BRANCH 129 130
ATOM    130  CG  LYS A  10       5.235 -25.905  38.413  0.00  0.00    +0.004 C 
BRANCH 130 131
ATOM    131  CD  LYS A  10       5.872 -24.787  39.277  0.00  0.00    +0.021 C 
BRANCH 131 132
ATOM    132  CE  LYS A  10       6.818 -23.906  38.501  0.00  0.00    +0.109 C 
ATOM    133  NZ  LYS A  10       7.480 -22.882  39.361  0.00  0.00    -0.131 NA
ENDBRANCH 131 132
ENDBRANCH 130 131
ENDBRANCH 129 130
ENDBRANCH  48 129
ENDBRANCH  45  48
ENDBRANCH  44  47
BRANCH  44 134
ATOM    134  CB  GLU A  11       2.724 -31.841  40.737  0.00  0.00    +0.043 C 
BRANCH 134 135
ATOM    135  CG  GLU A  11       4.113 -31.737  41.352  0.00  0.00    +0.116 C 
BRANCH 135 136
ATOM    136  CD  GLU A  11       4.850 -33.036  41.621  0.00  0.00    +0.365 C 
ATOM    137  OE2 GLU A  11       5.844 -32.996  42.384  0.00  0.00    -0.246 OA
ATOM    138  OE1 GLU A  11       4.461 -34.084  41.053  0.00  0.00    -0.246 OA
ENDBRANCH 135 136
ENDBRANCH 134 135
ENDBRANCH  44 134
ENDBRANCH  41  44
ENDBRANCH  40  42
BRANCH  40 139
ATOM    139  CB  ASP A  12       3.359 -28.260  44.656  0.00  0.00    +0.145 C 
BRANCH 139 140
ATOM    140  CG  ASP A  12       4.445 -27.362  44.084  0.00  0.00    +0.367 C 
ATOM    141  OD2 ASP A  12       5.417 -27.067  44.819  0.00  0.00    -0.246 OA
ATOM    142  OD1 ASP A  12       4.361 -27.007  42.877  0.00  0.00    -0.246 OA
ENDBRANCH 139 140
ENDBRANCH  40 139
ENDBRANCH  37  40
ENDBRANCH  36  39
BRANCH  36 143
ATOM    143  CB  GLN A  13       1.029 -24.569  41.264  0.00  0.00    +0.041 C 
BRANCH 143 144
ATOM    144  CG  GLN A  13       2.476 -24.321  41.717  0.00  0.00    +0.091 C 
BRANCH 144 145
ATOM    145  CD  GLN A  13       2.593 -23.668  43.079  0.00  0.00    +0.261 C 
ATOM    146  OE1 GLN A  13       3.528 -23.948  43.873  0.00  0.00    -0.272 OA
ATOM    147  NE2 GLN A  13       1.686 -22.754  43.384  0.00  0.00    -0.088 NA
ENDBRANCH 144 145
ENDBRANCH 143 144
ENDBRANCH  36 143
ENDBRANCH  33  36
ENDBRANCH  29  34
ENDBRANCH  26  29
ENDBRANCH  25  27
BRANCH  25 148
ATOM    148  CB  GLU A  15      -4.236 -23.762  45.304  0.00  0.00    +0.043 C 
BRANCH 148 149
ATOM    149  CG  GLU A  15      -3.233 -22.699  44.894  0.00  0.00    +0.116 C 
BRANCH 149 150
ATOM    150  CD  GLU A  15      -2.419 -22.217  46.072  0.00  0.00    +0.365 C 
ATOM    151  OE2 GLU A  15      -2.778 -21.164  46.642  0.00  0.00    -0.246 OA
ATOM    152  OE1 GLU A  15      -1.462 -22.924  46.463  0.00  0.00    -0.246 OA
ENDBRANCH 149 150
ENDBRANCH 148 149
ENDBRANCH  25 148
ENDBRANCH  22  25
ENDBRANCH  21  24
BRANCH  21 153
ATOM    153  CB  TYR A  16      -3.911 -21.571  40.314  0.00  0.00    +0.057 C 
BRANCH 153 154
ATOM    154  CG  TYR A  16      -3.024 -20.913  41.351  0.00  0.00    -0.020 A 
ATOM    155  CD2 TYR A  16      -3.455 -19.785  42.050  0.00  0.00    -0.001 A 
ATOM    156  CE2 TYR A  16      -2.693 -19.234  43.077  0.00  0.00    +0.042 A 
ATOM    157  CZ  TYR A  16      -1.475 -19.803  43.414  0.00  0.00    +0.196 A 
ATOM    158  OH  TYR A  16      -0.733 -19.229  44.426  0.00  0.00    -0.287 OA
ATOM    159  CE1 TYR A  16      -1.005 -20.903  42.706  0.00  0.00    +0.042 A 
ATOM    160  CD1 TYR A  16      -1.807 -21.485  41.722  0.00  0.00    -0.001 A 
ENDBRANCH 153 154
ENDBRANCH  21 153
ENDBRANCH  18  21
ENDBRANCH  17  19
BRANCH  17 161
ATOM    161  CB  LEU A  17      -7.393 -26.081  39.133  0.00  0.00    +0.031 C 
BRANCH 161 162
ATOM    162  CG  LEU A  17      -6.179 -26.235  38.250  0.00  0.00    +0.002 C 
ATOM    163  CD2 LEU A  17      -5.837 -27.702  38.051  0.00  0.00    +0.000 C 
ATOM    164  CD1 LEU A  17      -6.360 -25.480  36.919  0.00  0.00    +0.000 C 
ENDBRANCH 161 162
ENDBRANCH  17 161
ENDBRANCH  14  17
ENDBRANCH  13  15
BRANCH  13 165
ATOM    165  CB  GLU A  18      -9.583 -24.415  44.007  0.00  0.00    +0.043 C 
BRANCH 165 166
ATOM    166  CG  GLU A  18      -8.940 -25.761  44.304  0.00  0.00    +0.116 C 
BRANCH 166 167
ATOM    167  CD  GLU A  18      -9.868 -26.966  44.294  0.00  0.00    +0.365 C 
ATOM    168  OE2 GLU A  18     -11.068 -26.810  44.623  0.00  0.00    -0.246 OA
ATOM    169  OE1 GLU A  18      -9.383 -28.078  43.983  0.00  0.00    -0.246 OA
ENDBRANCH 166 167
ENDBRANCH 165 166
ENDBRANCH  13 165
ENDBRANCH  10  13
ENDBRANCH   9  12
BRANCH   9 170
ATOM    170  CB  GLU A  19     -14.553 -22.496  42.034  0.00  0.00    +0.043 C 
BRANCH 170 171
ATOM    171  CG  GLU A  19     -15.527 -21.426  41.564  0.00  0.00    +0.116 C 
BRANCH 171 172
ATOM    172  CD  GLU A  19     -17.005 -21.756  41.686  0.00  0.00    +0.365 C 
ATOM    173  OE2 GLU A  19     -17.351 -22.731  42.393  0.00  0.00    -0.246 OA
ATOM    174  OE1 GLU A  19     -17.822 -21.030  41.074  0.00  0.00    -0.246 OA
ENDBRANCH 171 172
ENDBRANCH 170 171
ENDBRANCH   9 170
ENDBRANCH   6   9
ENDBRANCH   5   7
BRANCH   5 175
ATOM    175  CB  ARG A  20     -13.123 -20.907  46.960  0.00  0.00    +0.035 C 
BRANCH 175 176
ATOM    176  CG  ARG A  20     -12.293 -22.111  47.342  0.00  0.00    +0.049 C 
BRANCH 176 177
ATOM    177  CD  ARG A  20     -12.961 -22.841  48.496  0.00  0.00    +0.220 C 
BRANCH 177 178
ATOM    178  NE  ARG A  20     -12.033 -23.740  49.178  0.00  0.00    -0.087 NA
ATOM    179  CZ  ARG A  20     -12.234 -24.239  50.393  0.00  0.00    +0.535 C 
ATOM    180  NH2 ARG A  20     -13.332 -23.928  51.073  0.00  0.00    +0.135 NA
ATOM    181  NH1 ARG A  20     -11.335 -25.042  50.944  0.00  0.00    +0.135 NA
ENDBRANCH 177 178
ENDBRANCH 176 177
ENDBRANCH 175 176
ENDBRANCH   5 175
ENDBRANCH   2   5
ENDBRANCH   1   4
BRANCH   1 182
ATOM    182  C   ARG A  21      -9.049 -18.621  43.939  0.00  0.00    +0.262 C 
ATOM    183  O   ARG A  21      -8.594 -17.494  44.121  0.00  0.00    -0.271 OA
ATOM    184  N   ILE A  22      -9.523 -19.028  42.748  0.00  0.00    -0.196 NA
BRANCH 184 185
ATOM    185  CA  ILE A  22      -9.488 -18.106  41.598  0.00  0.00    +0.173 C 
BRANCH 185 186
ATOM    186  C   ILE A  22     -10.364 -16.881  41.893  0.00  0.00    +0.262 C 
ATOM    187  N   LYS A  23     -11.586 -17.105  42.436  0.00  0.00    -0.196 NA
ATOM    188  O   ILE A  22      -9.947 -15.749  41.613  0.00  0.00    -0.271 OA
BRANCH 187 189
ATOM    189  CA  LYS A  23     -12.479 -15.991  42.761  0.00  0.00    +0.173 C 
BRANCH 189 190
ATOM    190  C   LYS A  23     -11.801 -15.031  43.732  0.00  0.00    +0.262 C 
ATOM    191  N   GLU A  24     -11.093 -15.583  44.739  0.00  0.00    -0.196 NA
ATOM    192  O   LYS A  23     -11.915 -13.814  43.578  0.00  0.00    -0.271 OA
BRANCH 191 193
ATOM    193  CA  GLU A  24     -10.410 -14.742  45.727  0.00  0.00    +0.173 C 
BRANCH 193 194
ATOM    194  C   GLU A  24      -9.366 -13.855  45.055  0.00  0.00    +0.262 C 
ATOM    195  O   GLU A  24      -9.270 -12.667  45.379  0.00  0.00    -0.271 OA
ATOM    196  N   ILE A  25      -8.565 -14.448  44.131  0.00  0.00    -0.196 NA
BRANCH 196 197
ATOM    197  CA  ILE A  25      -7.505 -13.688  43.457  0.00  0.00    +0.173 C 
BRANCH 197 198
ATOM    198  C   ILE A  25      -8.100 -12.618  42.554  0.00  0.00    +0.262 C 
ATOM    199  O   ILE A  25      -7.592 -11.501  42.521  0.00  0.00    -0.271 OA
ATOM    200  N   VAL A  26      -9.136 -12.965  41.775  0.00  0.00    -0.196 NA
BRANCH 200 201
ATOM    201  CA  VAL A  26      -9.734 -11.965  40.880  0.00  0.00    +0.173 C 
BRANCH 201 202
ATOM    202  CB  VAL A  26     -10.805 -12.641  39.982  0.00  0.00    +0.029 C 
ATOM    203  CG2 VAL A  26     -11.617 -11.608  39.189  0.00  0.00    +0.002 C 
ATOM    204  CG1 VAL A  26     -10.151 -13.645  39.039  0.00  0.00    +0.002 C 
ENDBRANCH 201 202
BRANCH 201 205
ATOM    205  C   VAL A  26     -10.303 -10.801  41.679  0.00  0.00    +0.262 C 
ATOM    206  N   LYS A  27     -11.012 -11.093  42.776  0.00  0.00    -0.196 NA
ATOM    207  O   VAL A  26     -10.111  -9.651  41.301  0.00  0.00    -0.271 OA
BRANCH 206 208
ATOM    208  CA  LYS A  27     -11.627 -10.042  43.596  0.00  0.00    +0.173 C 
BRANCH 208 209
ATOM    209  C   LYS A  27     -10.563  -9.124  44.203  0.00  0.00    +0.262 C 
ATOM    210  N   LYS A  28      -9.441  -9.710  44.635  0.00  0.00    -0.196 NA
ATOM    211  O   LYS A  27     -10.779  -7.912  44.302  0.00  0.00    -0.271 OA
BRANCH 210 212
ATOM    212  CA  LYS A  28      -8.369  -8.970  45.300  0.00  0.00    +0.173 C 
BRANCH 212 213
ATOM    213  C   LYS A  28      -7.611  -8.056  44.333  0.00  0.00    +0.262 C 
ATOM    214  O   LYS A  28      -7.299  -6.917  44.685  0.00  0.00    -0.271 OA
ATOM    215  N   HIS A  29      -7.303  -8.562  43.142  0.00  0.00    -0.196 NA
BRANCH 215 216
ATOM    216  CA  HIS A  29      -6.388  -7.914  42.220  0.00  0.00    +0.179 C 
BRANCH 216 217
ATOM    217  C   HIS A  29      -6.944  -7.344  40.949  0.00  0.00    +0.262 C 
ATOM    218  N   SER A  30      -8.126  -7.772  40.548  0.00  0.00    -0.194 NA
ATOM    219  O   HIS A  29      -6.285  -6.525  40.314  0.00  0.00    -0.271 OA
BRANCH 218 220
ATOM    220  CA  SER A  30      -8.674  -7.389  39.257  0.00  0.00    +0.205 C 
BRANCH 220 221
ATOM    221  C   SER A  30     -10.044  -6.725  39.343  0.00  0.00    +0.264 C 
ATOM    222  N   GLN A  31     -10.377  -6.084  40.469  0.00  0.00    -0.196 NA
ATOM    223  O   SER A  30     -10.786  -6.738  38.361  0.00  0.00    -0.271 OA
BRANCH 222 224
ATOM    224  CA  GLN A  31     -11.722  -5.506  40.584  0.00  0.00    +0.173 C 
BRANCH 224 225
ATOM    225  C   GLN A  31     -11.970  -4.327  39.623  0.00  0.00    +0.262 C 
ATOM    226  O   GLN A  31     -13.131  -4.032  39.349  0.00  0.00    -0.271 OA
ATOM    227  N   PHE A  32     -10.903  -3.688  39.080  0.00  0.00    -0.196 NA
BRANCH 227 228
ATOM    228  CA  PHE A  32     -11.098  -2.531  38.193  0.00  0.00    +0.177 C 
BRANCH 228 229
ATOM    229  C   PHE A  32     -10.855  -2.825  36.715  0.00  0.00    +0.262 C 
ATOM    230  N   ILE A  33     -10.853  -4.107  36.350  0.00  0.00    -0.196 NA
ATOM    231  O   PHE A  32     -10.757  -1.897  35.901  0.00  0.00    -0.271 OA
BRANCH 230 232
ATOM    232  CA  ILE A  33     -10.708  -4.507  34.953  0.00  0.00    +0.173 C 
BRANCH 232 233
ATOM    233  C   ILE A  33     -12.063  -4.274  34.297  0.00  0.00    +0.262 C 
ATOM    234  O   ILE A  33     -13.091  -4.750  34.811  0.00  0.00    -0.271 OA
ATOM    235  N   GLY A  34     -12.078  -3.472  33.230  0.00  0.00    -0.194 NA
BRANCH 235 236
ATOM    236  CA  GLY A  34     -13.323  -3.055  32.591  0.00  0.00    +0.201 C 
BRANCH 236 237
ATOM    237  C   GLY A  34     -13.916  -4.003  31.568  0.00  0.00    +0.264 C 
ATOM    238  N   TYR A  35     -13.781  -5.308  31.822  0.00  0.00    -0.196 NA
ATOM    239  O   GLY A  34     -14.495  -3.570  30.559  0.00  0.00    -0.271 OA
BRANCH 238 240
ATOM    240  CA  TYR A  35     -14.327  -6.341  30.937  0.00  0.00    +0.176 C 
BRANCH 240 241
ATOM    241  C   TYR A  35     -14.924  -7.437  31.790  0.00  0.00    +0.246 C 
ATOM    242  O   TYR A  35     -14.396  -7.706  32.871  0.00  0.00    -0.273 OA
ATOM    243  N   PRO A  36     -15.951  -8.150  31.296  0.00  0.00    -0.272 N 
ATOM    244  CA  PRO A  36     -16.498  -9.262  32.078  0.00  0.00    +0.154 C 
ATOM    245  CB  PRO A  36     -17.727  -9.722  31.281  0.00  0.00    +0.031 C 
ATOM    246  CG  PRO A  36     -17.575  -9.136  29.924  0.00  0.00    +0.024 C 
ATOM    247  CD  PRO A  36     -16.683  -7.931  30.030  0.00  0.00    +0.094 C 
BRANCH 244 248
ATOM    248  C   PRO A  36     -15.462 -10.368  32.160  0.00  0.00    +0.260 C 
ATOM    249  N   ILE A  37     -15.198 -10.825  33.381  0.00  0.00    -0.196 NA
ATOM    250  O   PRO A  36     -14.866 -10.758  31.141  0.00  0.00    -0.272 OA
BRANCH 249 251
ATOM    251  CA  ILE A  37     -14.277 -11.920  33.643  0.00  0.00    +0.173 C 
BRANCH 251 252
ATOM    252  C   ILE A  37     -15.151 -13.083  34.049  0.00  0.00    +0.262 C 
ATOM    253  O   ILE A  37     -15.800 -13.014  35.113  0.00  0.00    -0.271 OA
ATOM    254  N   THR A  38     -15.228 -14.124  33.201  0.00  0.00    -0.194 NA
BRANCH 254 255
ATOM    255  CA  THR A  38     -16.112 -15.239  33.539  0.00  0.00    +0.203 C 
BRANCH 255 256
ATOM    256  CB  THR A  38     -16.981 -15.606  32.321  0.00  0.00    +0.181 C 
ATOM    257  CG2 THR A  38     -17.920 -16.796  32.612  0.00  0.00    +0.038 C 
ATOM    258  OG1 THR A  38     -17.759 -14.455  31.909  0.00  0.00    -0.221 OA
ENDBRANCH 255 256
BRANCH 255 259
ATOM    259  C   THR A  38     -15.271 -16.416  33.969  0.00  0.00    +0.264 C 
ATOM    260  N   LEU A  39     -15.499 -16.930  35.176  0.00  0.00    -0.196 NA
ATOM    261  O   THR A  38     -14.451 -16.888  33.195  0.00  0.00    -0.271 OA
BRANCH 260 262
ATOM    262  CA  LEU A  39     -14.814 -18.115  35.649  0.00  0.00    +0.173 C 
BRANCH 262 263
ATOM    263  C   LEU A  39     -15.700 -19.316  35.322  0.00  0.00    +0.262 C 
ATOM    264  O   LEU A  39     -16.801 -19.444  35.874  0.00  0.00    -0.271 OA
ATOM    265  N   PHE A  40     -15.220 -20.186  34.420  0.00  0.00    -0.196 NA
BRANCH 265 266
ATOM    266  CA  PHE A  40     -15.985 -21.352  34.028  0.00  0.00    +0.177 C 
BRANCH 266 267
ATOM    267  C   PHE A  40     -15.964 -22.394  35.143  0.00  0.00    +0.262 C 
ATOM    268  O   PHE A  40     -14.986 -22.469  35.904  0.00  0.00    -0.271 OA
ATOM    269  N   VAL A  41     -17.053 -23.168  35.247  0.00  0.00    -0.196 NA
BRANCH 269 270
ATOM    270  CA  VAL A  41     -17.285 -24.247  36.215  0.00  0.00    +0.173 C 
BRANCH 270 271
ATOM    271  C   VAL A  41     -16.929 -25.535  35.484  0.00  0.00    +0.262 C 
ATOM    272  N   GLU A  42     -16.540 -26.576  36.222  0.00  0.00    -0.196 NA
ATOM    273  O   VAL A  41     -17.069 -25.606  34.262  0.00  0.00    -0.271 OA
BRANCH 272 274
ATOM    274  CA  GLU A  42     -16.311 -27.885  35.622  0.00  0.00    +0.173 C 
BRANCH 274 275
ATOM    275  C   GLU A  42     -17.420 -28.861  36.047  0.00  0.00    +0.262 C 
ATOM    276  O   GLU A  42     -17.963 -28.722  37.147  0.00  0.00    -0.271 OA
ATOM    277  N   GLU A  43     -17.609 -29.837  35.256  0.00  0.00    -0.198 NA
BRANCH 277 278
ATOM    278  CA  GLU A  43     -18.592 -30.778  35.779  0.00  0.00    +0.160 C 
BRANCH 278 279
ATOM    279  C   GLU A  43     -18.018 -31.588  36.937  0.00  0.00    +0.229 C 
ATOM    280  O   GLU A  43     -16.806 -31.778  37.032  0.00  0.00    -0.286 OA
ENDBRANCH 278 279
BRANCH 278 281
ATOM    281  CB  GLU A  43     -19.079 -31.714  34.672  0.00  0.00    +0.041 C 
BRANCH 281 282
ATOM    282  CG  GLU A  43     -17.992 -32.600  34.084  0.00  0.00    +0.116 C 
BRANCH 282 283
ATOM    283  CD  GLU A  43     -18.485 -33.425  32.910  0.00  0.00    +0.365 C 
ATOM    284  OE2 GLU A  43     -19.716 -33.576  32.764  0.00  0.00    -0.246 OA
ATOM    285  OE1 GLU A  43     -17.642 -33.924  32.136  0.00  0.00    -0.246 OA
ENDBRANCH 282 283
ENDBRANCH 281 282
ENDBRANCH 278 281
ENDBRANCH 277 278
ENDBRANCH 274 275
BRANCH 274 286
ATOM    286  CB  GLU A  42     -14.961 -28.440  36.068  0.00  0.00    +0.043 C 
BRANCH 286 287
ATOM    287  CG  GLU A  42     -13.801 -27.541  35.670  0.00  0.00    +0.116 C 
BRANCH 287 288
ATOM    288  CD  GLU A  42     -12.496 -27.988  36.289  0.00  0.00    +0.365 C 
ATOM    289  OE2 GLU A  42     -12.034 -27.346  37.260  0.00  0.00    -0.246 OA
ATOM    290  OE1 GLU A  42     -11.984 -29.040  35.851  0.00  0.00    -0.246 OA
ENDBRANCH 287 288
ENDBRANCH 286 287
ENDBRANCH 274 286
ENDBRANCH 272 274
ENDBRANCH 270 271
BRANCH 270 291
ATOM    291  CB  VAL A  41     -18.827 -24.299  36.557  0.00  0.00    +0.029 C 
ATOM    292  CG2 VAL A  41     -19.158 -25.351  37.624  0.00  0.00    +0.002 C 
ATOM    293  CG1 VAL A  41     -19.375 -22.938  36.955  0.00  0.00    +0.002 C 
ENDBRANCH 270 291
ENDBRANCH 269 270
ENDBRANCH 266 267
BRANCH 266 294
ATOM    294  CB  PHE A  40     -15.388 -21.974  32.754  0.00  0.00    +0.057 C 
BRANCH 294 295
ATOM    295  CG  PHE A  40     -15.678 -21.295  31.437  0.00  0.00    -0.020 A 
ATOM    296  CD2 PHE A  40     -15.819 -19.909  31.358  0.00  0.00    -0.004 A 
ATOM    297  CE2 PHE A  40     -16.045 -19.277  30.124  0.00  0.00    -0.000 A 
ATOM    298  CZ  PHE A  40     -16.118 -20.045  28.964  0.00  0.00    -0.000 A 
ATOM    299  CE1 PHE A  40     -15.937 -21.401  29.029  0.00  0.00    -0.000 A 
ATOM    300  CD1 PHE A  40     -15.723 -22.030  30.263  0.00  0.00    -0.004 A 
ENDBRANCH 294 295
ENDBRANCH 266 294
ENDBRANCH 265 266
ENDBRANCH 262 263
BRANCH 262 301
ATOM    301  CB  LEU A  39     -14.539 -18.019  37.165  0.00  0.00    +0.031 C 
BRANCH 301 302
ATOM    302  CG  LEU A  39     -13.997 -19.283  37.834  0.00  0.00    +0.002 C 
ATOM    303  CD2 LEU A  39     -13.807 -19.052  39.332  0.00  0.00    +0.000 C 
ATOM    304  CD1 LEU A  39     -12.702 -19.759  37.193  0.00  0.00    +0.000 C 
ENDBRANCH 301 302
ENDBRANCH 262 301
ENDBRANCH 260 262
ENDBRANCH 255 259
ENDBRANCH 254 255
ENDBRANCH 251 252
BRANCH 251 305
ATOM    305  CB  ILE A  37     -13.234 -11.567  34.725  0.00  0.00    +0.029 C 
ATOM    306  CG2 ILE A  37     -12.361 -12.807  35.063  0.00  0.00    +0.002 C 
BRANCH 305 307
ATOM    307  CG1 ILE A  37     -12.342 -10.410  34.231  0.00  0.00    +0.002 C 
ATOM    308  CD1 ILE A  37     -11.519  -9.752  35.356  0.00  0.00    +0.000 C 
ENDBRANCH 305 307
ENDBRANCH 251 305
ENDBRANCH 249 251
ENDBRANCH 244 248
ENDBRANCH 240 241
BRANCH 240 309
ATOM    309  CB  TYR A  35     -13.207  -6.940  30.038  0.00  0.00    +0.057 C 
BRANCH 309 310
ATOM    310  CG  TYR A  35     -12.646  -5.905  29.099  0.00  0.00    -0.020 A 
ATOM    311  CD2 TYR A  35     -11.455  -5.241  29.393  0.00  0.00    -0.001 A 
ATOM    312  CE2 TYR A  35     -10.996  -4.201  28.599  0.00  0.00    +0.042 A 
ATOM    313  CZ  TYR A  35     -11.704  -3.836  27.470  0.00  0.00    +0.196 A 
ATOM    314  CE1 TYR A  35     -12.899  -4.473  27.162  0.00  0.00    +0.042 A 
ATOM    315  OH  TYR A  35     -11.258  -2.788  26.707  0.00  0.00    -0.287 OA
ATOM    316  CD1 TYR A  35     -13.348  -5.513  27.963  0.00  0.00    -0.001 A 
ENDBRANCH 309 310
ENDBRANCH 240 309
ENDBRANCH 238 240
ENDBRANCH 236 237
ENDBRANCH 235 236
ENDBRANCH 232 233
BRANCH 232 317
ATOM    317  CB  ILE A  33     -10.247  -5.983  34.873  0.00  0.00    +0.029 C 
ATOM    318  CG2 ILE A  33     -10.320  -6.534  33.427  0.00  0.00    +0.002 C 
BRANCH 317 319
ATOM    319  CG1 ILE A  33      -8.844  -6.150  35.486  0.00  0.00    +0.002 C 
ATOM    320  CD1 ILE A  33      -7.657  -5.538  34.636  0.00  0.00    +0.000 C 
ENDBRANCH 317 319
ENDBRANCH 232 317
ENDBRANCH 230 232
ENDBRANCH 228 229
BRANCH 228 321
ATOM    321  CB  PHE A  32     -10.286  -1.312  38.658  0.00  0.00    +0.057 C 
BRANCH 321 322
ATOM    322  CG  PHE A  32     -10.717  -0.878  40.043  0.00  0.00    -0.020 A 
ATOM    323  CD2 PHE A  32      -9.859  -1.014  41.128  0.00  0.00    -0.004 A 
ATOM    324  CE2 PHE A  32     -10.276  -0.656  42.416  0.00  0.00    -0.000 A 
ATOM    325  CZ  PHE A  32     -11.547  -0.168  42.621  0.00  0.00    -0.000 A 
ATOM    326  CE1 PHE A  32     -12.414  -0.029  41.558  0.00  0.00    -0.000 A 
ATOM    327  CD1 PHE A  32     -12.004  -0.399  40.272  0.00  0.00    -0.004 A 
ENDBRANCH 321 322
ENDBRANCH 228 321
ENDBRANCH 227 228
ENDBRANCH 224 225
BRANCH 224 328
ATOM    328  CB  GLN A  31     -12.085  -5.140  42.046  0.00  0.00    +0.041 C 
BRANCH 328 329
ATOM    329  CG  GLN A  31     -11.373  -3.921  42.609  0.00  0.00    +0.091 C 
BRANCH 329 330
ATOM    330  CD  GLN A  31     -11.516  -3.754  44.107  0.00  0.00    +0.261 C 
ATOM    331  NE2 GLN A  31     -10.478  -3.220  44.736  0.00  0.00    -0.088 NA
ATOM    332  OE1 GLN A  31     -12.556  -4.053  44.711  0.00  0.00    -0.272 OA
ENDBRANCH 329 330
ENDBRANCH 328 329
ENDBRANCH 224 328
ENDBRANCH 222 224
ENDBRANCH 220 221
BRANCH 220 333
ATOM    333  CB  SER A  30      -8.730  -8.627  38.361  0.00  0.00    +0.213 C 
ATOM    334  OG  SER A  30      -7.454  -9.220  38.183  0.00  0.00    -0.218 OA
ENDBRANCH 220 333
ENDBRANCH 218 220
ENDBRANCH 216 217
BRANCH 216 335
ATOM    335  CB  HIS A  29      -5.302  -8.898  41.821  0.00  0.00    +0.079 C 
BRANCH 335 336
ATOM    336  CG  HIS A  29      -4.366  -9.248  42.930  0.00  0.00    +0.082 A 
ATOM    337  CD2 HIS A  29      -3.484  -8.469  43.636  0.00  0.00    +0.115 A 
ATOM    338  NE2 HIS A  29      -2.886  -9.254  44.533  0.00  0.00    -0.221 NA
ATOM    339  CE1 HIS A  29      -3.365 -10.484  44.415  0.00  0.00    +0.199 A 
ATOM    340  ND1 HIS A  29      -4.271 -10.482  43.436  0.00  0.00    -0.227 NA
ENDBRANCH 335 336
ENDBRANCH 216 335
ENDBRANCH 215 216
ENDBRANCH 212 213
BRANCH 212 341
ATOM    341  CB  LYS A  28      -7.378  -9.971  45.932  0.00  0.00    +0.031 C 
BRANCH 341 342
ATOM    342  CG  LYS A  28      -6.214  -9.355  46.711  0.00  0.00    +0.004 C 
BRANCH 342 343
ATOM    343  CD  LYS A  28      -5.445 -10.476  47.414  0.00  0.00    +0.021 C 
BRANCH 343 344
ATOM    344  CE  LYS A  28      -4.238  -9.986  48.181  0.00  0.00    +0.109 C 
ATOM    345  NZ  LYS A  28      -3.525 -11.107  48.860  0.00  0.00    -0.131 NA
ENDBRANCH 343 344
ENDBRANCH 342 343
ENDBRANCH 341 342
ENDBRANCH 212 341
ENDBRANCH 210 212
ENDBRANCH 208 209
BRANCH 208 346
ATOM    346  CB  LYS A  27     -12.472 -10.670  44.723  0.00  0.00    +0.031 C 
BRANCH 346 347
ATOM    347  CG  LYS A  27     -13.213  -9.663  45.619  0.00  0.00    +0.004 C 
BRANCH 347 348
ATOM    348  CD  LYS A  27     -13.957 -10.378  46.739  0.00  0.00    +0.021 C 
BRANCH 348 349
ATOM    349  CE  LYS A  27     -14.878  -9.441  47.488  0.00  0.00    +0.109 C 
ATOM    350  NZ  LYS A  27     -15.774 -10.171  48.424  0.00  0.00    -0.131 NA
ENDBRANCH 348 349
ENDBRANCH 347 348
ENDBRANCH 346 347
ENDBRANCH 208 346
ENDBRANCH 206 208
ENDBRANCH 201 205
ENDBRANCH 200 201
ENDBRANCH 197 198
BRANCH 197 351
ATOM    351  CB  ILE A  25      -6.575 -14.654  42.692  0.00  0.00    +0.029 C 
ATOM    352  CG2 ILE A  25      -5.503 -13.895  41.837  0.00  0.00    +0.002 C 
BRANCH 351 353
ATOM    353  CG1 ILE A  25      -5.921 -15.647  43.676  0.00  0.00    +0.002 C 
ATOM    354  CD1 ILE A  25      -5.415 -16.883  42.958  0.00  0.00    +0.000 C 
ENDBRANCH 351 353
ENDBRANCH 197 351
ENDBRANCH 196 197
ENDBRANCH 193 194
BRANCH 193 355
ATOM    355  CB  GLU A  24      -9.733 -15.649  46.756  0.00  0.00    +0.043 C 
BRANCH 355 356
ATOM    356  CG  GLU A  24      -9.005 -14.893  47.857  0.00  0.00    +0.116 C 
BRANCH 356 357
ATOM    357  CD  GLU A  24      -8.184 -15.819  48.728  0.00  0.00    +0.365 C 
ATOM    358  OE2 GLU A  24      -8.081 -15.544  49.945  0.00  0.00    -0.246 OA
ATOM    359  OE1 GLU A  24      -7.563 -16.755  48.171  0.00  0.00    -0.246 OA
ENDBRANCH 356 357
ENDBRANCH 355 356
ENDBRANCH 193 355
ENDBRANCH 191 193
ENDBRANCH 189 190
BRANCH 189 360
ATOM    360  CB  LYS A  23     -13.778 -16.496  43.399  0.00  0.00    +0.031 C 
BRANCH 360 361
ATOM    361  CG  LYS A  23     -14.711 -17.126  42.398  0.00  0.00    +0.004 C 
BRANCH 361 362
ATOM    362  CD  LYS A  23     -15.989 -17.559  43.097  0.00  0.00    +0.021 C 
BRANCH 362 363
ATOM    363  CE  LYS A  23     -17.040 -17.991  42.107  0.00  0.00    +0.109 C 
ATOM    364  NZ  LYS A  23     -18.196 -18.638  42.792  0.00  0.00    -0.131 NA
ENDBRANCH 362 363
ENDBRANCH 361 362
ENDBRANCH 360 361
ENDBRANCH 189 360
ENDBRANCH 187 189
ENDBRANCH 185 186
BRANCH 185 365
ATOM    365  CB  ILE A  22      -9.942 -18.827  40.309  0.00  0.00    +0.029 C 
ATOM    366  CG2 ILE A  22     -10.024 -17.832  39.147  0.00  0.00    +0.002 C 
BRANCH 365 367
ATOM    367  CG1 ILE A  22      -8.989 -20.002  39.983  0.00  0.00    +0.002 C 
ATOM    368  CD1 ILE A  22      -9.577 -20.992  38.899  0.00  0.00    +0.000 C 
ENDBRANCH 365 367
ENDBRANCH 185 365
ENDBRANCH 184 185
ENDBRANCH   1 182
BRANCH   1 369
ATOM    369  CB  ARG A  21      -8.018 -20.692  44.955  0.00  0.00    +0.035 C 
BRANCH 369 370
ATOM    370  CG  ARG A  21      -6.593 -20.110  44.945  0.00  0.00    +0.049 C 
BRANCH 370 371
ATOM    371  CD  ARG A  21      -6.209 -19.565  46.329  0.00  0.00    +0.220 C 
BRANCH 371 372
ATOM    372  NE  ARG A  21      -4.774 -19.267  46.375  0.00  0.00    -0.087 NA
ATOM    373  CZ  ARG A  21      -4.225 -18.061  46.559  0.00  0.00    +0.535 C 
ATOM    374  NH2 ARG A  21      -4.993 -16.998  46.792  0.00  0.00    +0.135 NA
ATOM    375  NH1 ARG A  21      -2.901 -17.920  46.559  0.00  0.00    +0.135 NA
ENDBRANCH 371 372
ENDBRANCH 370 371
ENDBRANCH 369 370
ENDBRANCH   1 369
TORSDOF 185
REMARK  Name = /Users/mlugowska/PhD/ML_residence_time_prediction/protein_files/5NYI_protein.pdb
REMARK  798 active torsions:
REMARK  status: ('A' for Active; 'I' for Inactive)
REMARK    1  A    between atoms: _2  and  _3
REMARK    2  A    between atoms: _2  and  _5
REMARK    3  A    between atoms: _5  and  _6
REMARK    4  A    between atoms: _6  and  _7
REMARK    5  A    between atoms: _10  and  _11
REMARK    6  A    between atoms: _11  and  _12
REMARK    7  A    between atoms: _11  and  _14
REMARK    8  A    between atoms: _17  and  _18
REMARK    9  A    between atoms: _18  and  _19
REMARK   10  A    between atoms: _18  and  _21
REMARK   11  A    between atoms: _21  and  _22
REMARK   12  A    between atoms: _22  and  _23
REMARK   13  A    between atoms: _26  and  _27
REMARK   14  A    between atoms: _27  and  _28
REMARK   15  A    between atoms: _27  and  _30
REMARK   16  A    between atoms: _33  and  _34
REMARK   17  A    between atoms: _34  and  _35
REMARK   18  A    between atoms: _34  and  _37
REMARK   19  A    between atoms: _37  and  _38
REMARK   20  A    between atoms: _44  and  _45
REMARK   21  A    between atoms: _45  and  _46
REMARK   22  A    between atoms: _49  and  _50
REMARK   23  A    between atoms: _50  and  _51
REMARK   24  A    between atoms: _50  and  _53
REMARK   25  A    between atoms: _53  and  _54
REMARK   26  A    between atoms: _60  and  _61
REMARK   27  A    between atoms: _61  and  _62
REMARK   28  A    between atoms: _61  and  _64
REMARK   29  A    between atoms: _64  and  _65
REMARK   30  A    between atoms: _65  and  _66
REMARK   31  A    between atoms: _69  and  _70
REMARK   32  A    between atoms: _70  and  _71
REMARK   33  A    between atoms: _74  and  _75
REMARK   34  A    between atoms: _75  and  _76
REMARK   35  A    between atoms: _75  and  _78
REMARK   36  A    between atoms: _78  and  _79
REMARK   37  A    between atoms: _79  and  _80
REMARK   38  A    between atoms: _83  and  _84
REMARK   39  A    between atoms: _84  and  _86
REMARK   40  A    between atoms: _88  and  _90
REMARK   41  A    between atoms: _96  and  _97
REMARK   42  A    between atoms: _97  and  _98
REMARK   43  A    between atoms: _101  and  _102
REMARK   44  A    between atoms: _102  and  _103
REMARK   45  A    between atoms: _102  and  _105
REMARK   46  A    between atoms: _105  and  _106
REMARK   47  A    between atoms: _106  and  _107
REMARK   48  A    between atoms: _110  and  _111
REMARK   49  A    between atoms: _111  and  _112
REMARK   50  A    between atoms: _111  and  _114
REMARK   51  A    between atoms: _114  and  _115
REMARK   52  A    between atoms: _118  and  _119
REMARK   53  A    between atoms: _119  and  _120
REMARK   54  A    between atoms: _119  and  _122
REMARK   55  A    between atoms: _122  and  _123
REMARK   56  A    between atoms: _123  and  _124
REMARK   57  A    between atoms: _126  and  _127
REMARK   58  A    between atoms: _127  and  _128
REMARK   59  A    between atoms: _127  and  _130
REMARK   60  A    between atoms: _132  and  _133
REMARK   61  A    between atoms: _133  and  _134
REMARK   62  A    between atoms: _133  and  _136
REMARK   63  A    between atoms: _136  and  _137
REMARK   64  A    between atoms: _140  and  _141
REMARK   65  A    between atoms: _141  and  _142
REMARK   66  A    between atoms: _141  and  _144
REMARK   67  A    between atoms: _144  and  _145
REMARK   68  A    between atoms: _148  and  _149
REMARK   69  A    between atoms: _149  and  _150
REMARK   70  A    between atoms: _149  and  _152
REMARK   71  A    between atoms: _152  and  _153
REMARK   72  A    between atoms: _156  and  _157
REMARK   73  A    between atoms: _157  and  _158
REMARK   74  A    between atoms: _157  and  _160
REMARK   75  A    between atoms: _160  and  _161
REMARK   76  A    between atoms: _164  and  _165
REMARK   77  A    between atoms: _165  and  _166
REMARK   78  A    between atoms: _165  and  _168
REMARK   79  A    between atoms: _171  and  _172
REMARK   80  A    between atoms: _172  and  _173
REMARK   81  A    between atoms: _172  and  _175
REMARK   82  A    between atoms: _175  and  _176
REMARK   83  A    between atoms: _182  and  _183
REMARK   84  A    between atoms: _183  and  _184
REMARK   85  A    between atoms: _183  and  _186
REMARK   86  A    between atoms: _186  and  _187
REMARK   87  A    between atoms: _194  and  _195
REMARK   88  A    between atoms: _195  and  _196
REMARK   89  A    between atoms: _195  and  _198
REMARK   90  A    between atoms: _200  and  _201
REMARK   91  A    between atoms: _201  and  _202
REMARK   92  A    between atoms: _201  and  _204
REMARK   93  A    between atoms: _204  and  _205
REMARK   94  A    between atoms: _208  and  _209
REMARK   95  A    between atoms: _209  and  _210
REMARK   96  A    between atoms: _209  and  _212
REMARK   97  A    between atoms: _212  and  _213
REMARK   98  A    between atoms: _213  and  _214
REMARK   99  A    between atoms: _214  and  _215
REMARK  100  A    between atoms: _217  and  _218
REMARK  101  A    between atoms: _218  and  _219
REMARK  102  A    between atoms: _218  and  _221
REMARK  103  A    between atoms: _221  and  _222
REMARK  104  A    between atoms: _222  and  _223
REMARK  105  A    between atoms: _226  and  _227
REMARK  106  A    between atoms: _227  and  _228
REMARK  107  A    between atoms: _227  and  _230
REMARK  108  A    between atoms: _230  and  _231
REMARK  109  A    between atoms: _234  and  _235
REMARK  110  A    between atoms: _235  and  _236
REMARK  111  A    between atoms: _235  and  _238
REMARK  112  A    between atoms: _238  and  _239
REMARK  113  A    between atoms: _245  and  _246
REMARK  114  A    between atoms: _246  and  _247
REMARK  115  A    between atoms: _246  and  _249
REMARK  116  A    between atoms: _249  and  _250
REMARK  117  A    between atoms: _253  and  _254
REMARK  118  A    between atoms: _254  and  _255
REMARK  119  A    between atoms: _254  and  _257
REMARK  120  A    between atoms: _257  and  _258
REMARK  121  A    between atoms: _258  and  _259
REMARK  122  A    between atoms: _259  and  _260
REMARK  123  A    between atoms: _264  and  _265
REMARK  124  A    between atoms: _265  and  _266
REMARK  125  A    between atoms: _265  and  _268
REMARK  126  A    between atoms: _268  and  _269
REMARK  127  A    between atoms: _269  and  _270
REMARK  128  A    between atoms: _273  and  _274
REMARK  129  A    between atoms: _274  and  _275
REMARK  130  A    between atoms: _274  and  _277
REMARK  131  A    between atoms: _277  and  _278
REMARK  132  A    between atoms: _281  and  _282
REMARK  133  A    between atoms: _282  and  _283
REMARK  134  A    between atoms: _282  and  _285
REMARK  135  A    between atoms: _285  and  _286
REMARK  136  A    between atoms: _289  and  _290
REMARK  137  A    between atoms: _290  and  _295
REMARK  138  A    between atoms: _298  and  _299
REMARK  139  A    between atoms: _299  and  _300
REMARK  140  A    between atoms: _299  and  _302
REMARK  141  A    between atoms: _302  and  _303
REMARK  142  A    between atoms: _306  and  _307
REMARK  143  A    between atoms: _307  and  _308
REMARK  144  A    between atoms: _307  and  _310
REMARK  145  A    between atoms: _312  and  _313
REMARK  146  A    between atoms: _313  and  _314
REMARK  147  A    between atoms: _313  and  _316
REMARK  148  A    between atoms: _318  and  _319
REMARK  149  A    between atoms: _319  and  _320
REMARK  150  A    between atoms: _319  and  _322
REMARK  151  A    between atoms: _322  and  _323
REMARK  152  A    between atoms: _326  and  _327
REMARK  153  A    between atoms: _327  and  _328
REMARK  154  A    between atoms: _331  and  _332
REMARK  155  A    between atoms: _332  and  _333
REMARK  156  A    between atoms: _332  and  _335
REMARK  157  A    between atoms: _335  and  _336
REMARK  158  A    between atoms: _339  and  _340
REMARK  159  A    between atoms: _340  and  _341
REMARK  160  A    between atoms: _340  and  _343
REMARK  161  A    between atoms: _343  and  _344
REMARK  162  A    between atoms: _347  and  _348
REMARK  163  A    between atoms: _348  and  _349
REMARK  164  A    between atoms: _348  and  _351
REMARK  165  A    between atoms: _351  and  _352
REMARK  166  A    between atoms: _352  and  _353
REMARK  167  A    between atoms: _353  and  _354
REMARK  168  A    between atoms: _356  and  _357
REMARK  169  A    between atoms: _357  and  _358
REMARK  170  A    between atoms: _357  and  _360
REMARK  171  A    between atoms: _360  and  _361
REMARK  172  A    between atoms: _364  and  _365
REMARK  173  A    between atoms: _365  and  _366
REMARK  174  A    between atoms: _365  and  _368
REMARK  175  A    between atoms: _368  and  _369
REMARK  176  A    between atoms: _369  and  _370
REMARK  177  A    between atoms: _370  and  _371
REMARK  178  A    between atoms: _375  and  _376
REMARK  179  A    between atoms: _376  and  _377
REMARK  180  A    between atoms: _376  and  _379
REMARK  181  A    between atoms: _379  and  _380
REMARK  182  A    between atoms: _387  and  _388
REMARK  183  A    between atoms: _388  and  _389
REMARK  184  A    between atoms: _388  and  _391
REMARK  185  A    between atoms: _391  and  _392
REMARK  186  A    between atoms: _392  and  _393
REMARK  187  A    between atoms: _396  and  _397
REMARK  188  A    between atoms: _397  and  _398
REMARK  189  A    between atoms: _397  and  _400
REMARK  190  A    between atoms: _403  and  _404
REMARK  191  A    between atoms: _404  and  _405
REMARK  192  A    between atoms: _404  and  _407
REMARK  193  A    between atoms: _407  and  _408
REMARK  194  A    between atoms: _411  and  _412
REMARK  195  A    between atoms: _412  and  _413
REMARK  196  A    between atoms: _412  and  _415
REMARK  197  A    between atoms: _418  and  _419
REMARK  198  A    between atoms: _419  and  _420
REMARK  199  A    between atoms: _419  and  _422
REMARK  200  A    between atoms: _422  and  _423
REMARK  201  A    between atoms: _427  and  _428
REMARK  202  A    between atoms: _433  and  _434
REMARK  203  A    between atoms: _434  and  _435
REMARK  204  A    between atoms: _434  and  _437
REMARK  205  A    between atoms: _439  and  _440
REMARK  206  A    between atoms: _440  and  _441
REMARK  207  A    between atoms: _440  and  _443
REMARK  208  A    between atoms: _443  and  _444
REMARK  209  A    between atoms: _444  and  _445
REMARK  210  A    between atoms: _445  and  _446
REMARK  211  A    between atoms: _448  and  _449
REMARK  212  A    between atoms: _449  and  _450
REMARK  213  A    between atoms: _449  and  _452
REMARK  214  A    between atoms: _452  and  _453
REMARK  215  A    between atoms: _456  and  _457
REMARK  216  A    between atoms: _457  and  _458
REMARK  217  A    between atoms: _457  and  _460
REMARK  218  A    between atoms: _460  and  _461
REMARK  219  A    between atoms: _464  and  _465
REMARK  220  A    between atoms: _465  and  _466
REMARK  221  A    between atoms: _465  and  _468
REMARK  222  A    between atoms: _470  and  _471
REMARK  223  A    between atoms: _471  and  _472
REMARK  224  A    between atoms: _474  and  _475
REMARK  225  A    between atoms: _475  and  _476
REMARK  226  A    between atoms: _475  and  _478
REMARK  227  A    between atoms: _478  and  _479
REMARK  228  A    between atoms: _479  and  _480
REMARK  229  A    between atoms: _480  and  _481
REMARK  230  A    between atoms: _483  and  _484
REMARK  231  A    between atoms: _484  and  _485
REMARK  232  A    between atoms: _484  and  _487
REMARK  233  A    between atoms: _487  and  _488
REMARK  234  A    between atoms: _488  and  _489
REMARK  235  A    between atoms: _492  and  _493
REMARK  236  A    between atoms: _493  and  _494
REMARK  237  A    between atoms: _493  and  _496
REMARK  238  A    between atoms: _496  and  _497
REMARK  239  A    between atoms: _500  and  _501
REMARK  240  A    between atoms: _501  and  _502
REMARK  241  A    between atoms: _501  and  _504
REMARK  242  A    between atoms: _504  and  _505
REMARK  243  A    between atoms: _510  and  _511
REMARK  244  A    between atoms: _511  and  _512
REMARK  245  A    between atoms: _511  and  _514
REMARK  246  A    between atoms: _514  and  _515
REMARK  247  A    between atoms: _518  and  _519
REMARK  248  A    between atoms: _519  and  _520
REMARK  249  A    between atoms: _519  and  _522
REMARK  250  A    between atoms: _522  and  _523
REMARK  251  A    between atoms: _526  and  _527
REMARK  252  A    between atoms: _527  and  _528
REMARK  253  A    between atoms: _527  and  _530
REMARK  254  A    between atoms: _530  and  _531
REMARK  255  A    between atoms: _534  and  _535
REMARK  256  A    between atoms: _535  and  _536
REMARK  257  A    between atoms: _535  and  _538
REMARK  258  A    between atoms: _538  and  _539
REMARK  259  A    between atoms: _543  and  _544
REMARK  260  A    between atoms: _549  and  _550
REMARK  261  A    between atoms: _550  and  _551
REMARK  262  A    between atoms: _550  and  _553
REMARK  263  A    between atoms: _553  and  _554
REMARK  264  A    between atoms: _557  and  _558
REMARK  265  A    between atoms: _558  and  _559
REMARK  266  A    between atoms: _558  and  _561
REMARK  267  A    between atoms: _561  and  _562
REMARK  268  A    between atoms: _562  and  _563
REMARK  269  A    between atoms: _563  and  _564
REMARK  270  A    between atoms: _566  and  _567
REMARK  271  A    between atoms: _567  and  _568
REMARK  272  A    between atoms: _567  and  _570
REMARK  273  A    between atoms: _570  and  _571
REMARK  274  A    between atoms: _571  and  _572
REMARK  275  A    between atoms: _575  and  _576
REMARK  276  A    between atoms: _576  and  _577
REMARK  277  A    between atoms: _576  and  _579
REMARK  278  A    between atoms: _579  and  _580
REMARK  279  A    between atoms: _583  and  _584
REMARK  280  A    between atoms: _584  and  _585
REMARK  281  A    between atoms: _584  and  _587
REMARK  282  A    between atoms: _587  and  _588
REMARK  283  A    between atoms: _588  and  _589
REMARK  284  A    between atoms: _589  and  _590
REMARK  285  A    between atoms: _594  and  _595
REMARK  286  A    between atoms: _595  and  _596
REMARK  287  A    between atoms: _595  and  _598
REMARK  288  A    between atoms: _601  and  _602
REMARK  289  A    between atoms: _602  and  _603
REMARK  290  A    between atoms: _602  and  _605
REMARK  291  A    between atoms: _605  and  _606
REMARK  292  A    between atoms: _609  and  _610
REMARK  293  A    between atoms: _610  and  _611
REMARK  294  A    between atoms: _610  and  _613
REMARK  295  A    between atoms: _616  and  _617
REMARK  296  A    between atoms: _617  and  _618
REMARK  297  A    between atoms: _617  and  _620
REMARK  298  A    between atoms: _620  and  _621
REMARK  299  A    between atoms: _624  and  _625
REMARK  300  A    between atoms: _625  and  _626
REMARK  301  A    between atoms: _625  and  _628
REMARK  302  A    between atoms: _631  and  _632
REMARK  303  A    between atoms: _632  and  _633
REMARK  304  A    between atoms: _632  and  _635
REMARK  305  A    between atoms: _635  and  _636
REMARK  306  A    between atoms: _639  and  _640
REMARK  307  A    between atoms: _640  and  _641
REMARK  308  A    between atoms: _640  and  _643
REMARK  309  A    between atoms: _646  and  _647
REMARK  310  A    between atoms: _647  and  _648
REMARK  311  A    between atoms: _650  and  _651
REMARK  312  A    between atoms: _651  and  _652
REMARK  313  A    between atoms: _651  and  _654
REMARK  314  A    between atoms: _654  and  _655
REMARK  315  A    between atoms: _658  and  _659
REMARK  316  A    between atoms: _659  and  _660
REMARK  317  A    between atoms: _662  and  _663
REMARK  318  A    between atoms: _663  and  _664
REMARK  319  A    between atoms: _663  and  _666
REMARK  320  A    between atoms: _666  and  _667
REMARK  321  A    between atoms: _667  and  _668
REMARK  322  A    between atoms: _670  and  _671
REMARK  323  A    between atoms: _671  and  _672
REMARK  324  A    between atoms: _671  and  _674
REMARK  325  A    between atoms: _677  and  _678
REMARK  326  A    between atoms: _678  and  _679
REMARK  327  A    between atoms: _678  and  _681
REMARK  328  A    between atoms: _681  and  _682
REMARK  329  A    between atoms: _682  and  _683
REMARK  330  A    between atoms: _683  and  _684
REMARK  331  A    between atoms: _686  and  _687
REMARK  332  A    between atoms: _687  and  _688
REMARK  333  A    between atoms: _691  and  _692
REMARK  334  A    between atoms: _692  and  _693
REMARK  335  A    between atoms: _692  and  _695
REMARK  336  A    between atoms: _695  and  _696
REMARK  337  A    between atoms: _699  and  _700
REMARK  338  A    between atoms: _700  and  _701
REMARK  339  A    between atoms: _700  and  _703
REMARK  340  A    between atoms: _703  and  _704
REMARK  341  A    between atoms: _707  and  _708
REMARK  342  A    between atoms: _708  and  _709
REMARK  343  A    between atoms: _708  and  _711
REMARK  344  A    between atoms: _711  and  _712
REMARK  345  A    between atoms: _715  and  _716
REMARK  346  A    between atoms: _716  and  _717
REMARK  347  A    between atoms: _716  and  _719
REMARK  348  A    between atoms: _719  and  _720
REMARK  349  A    between atoms: _723  and  _724
REMARK  350  A    between atoms: _724  and  _725
REMARK  351  A    between atoms: _724  and  _727
REMARK  352  A    between atoms: _727  and  _728
REMARK  353  A    between atoms: _733  and  _734
REMARK  354  A    between atoms: _733  and  _736
REMARK  355  A    between atoms: _736  and  _739
REMARK  356  A    between atoms: _739  and  _741
REMARK  357  A    between atoms: _741  and  _742
REMARK  358  A    between atoms: _744  and  _745
REMARK  359  A    between atoms: _745  and  _746
REMARK  360  A    between atoms: _748  and  _749
REMARK  361  A    between atoms: _749  and  _750
REMARK  362  A    between atoms: _749  and  _752
REMARK  363  A    between atoms: _755  and  _756
REMARK  364  A    between atoms: _756  and  _757
REMARK  365  A    between atoms: _756  and  _759
REMARK  366  A    between atoms: _759  and  _760
REMARK  367  A    between atoms: _763  and  _764
REMARK  368  A    between atoms: _764  and  _765
REMARK  369  A    between atoms: _768  and  _769
REMARK  370  A    between atoms: _769  and  _770
REMARK  371  A    between atoms: _769  and  _772
REMARK  372  A    between atoms: _772  and  _773
REMARK  373  A    between atoms: _773  and  _774
REMARK  374  A    between atoms: _774  and  _775
REMARK  375  A    between atoms: _777  and  _778
REMARK  376  A    between atoms: _778  and  _779
REMARK  377  A    between atoms: _778  and  _781
REMARK  378  A    between atoms: _783  and  _784
REMARK  379  A    between atoms: _784  and  _785
REMARK  380  A    between atoms: _787  and  _788
REMARK  381  A    between atoms: _788  and  _789
REMARK  382  A    between atoms: _788  and  _791
REMARK  383  A    between atoms: _794  and  _795
REMARK  384  A    between atoms: _795  and  _796
REMARK  385  A    between atoms: _795  and  _798
REMARK  386  A    between atoms: _798  and  _799
REMARK  387  A    between atoms: _799  and  _800
REMARK  388  A    between atoms: _800  and  _801
REMARK  389  A    between atoms: _803  and  _804
REMARK  390  A    between atoms: _804  and  _805
REMARK  391  A    between atoms: _808  and  _809
REMARK  392  A    between atoms: _809  and  _810
REMARK  393  A    between atoms: _809  and  _812
REMARK  394  A    between atoms: _812  and  _813
REMARK  395  A    between atoms: _819  and  _820
REMARK  396  A    between atoms: _820  and  _821
REMARK  397  A    between atoms: _820  and  _823
REMARK  398  A    between atoms: _823  and  _824
REMARK  399  A    between atoms: _824  and  _825
REMARK  400  A    between atoms: _827  and  _828
REMARK  401  A    between atoms: _828  and  _829
REMARK  402  A    between atoms: _828  and  _831
REMARK  403  A    between atoms: _831  and  _832
REMARK  404  A    between atoms: _832  and  _833
REMARK  405  A    between atoms: _836  and  _837
REMARK  406  A    between atoms: _837  and  _838
REMARK  407  A    between atoms: _841  and  _842
REMARK  408  A    between atoms: _842  and  _843
REMARK  409  A    between atoms: _842  and  _845
REMARK  410  A    between atoms: _845  and  _846
REMARK  411  A    between atoms: _849  and  _850
REMARK  412  A    between atoms: _850  and  _851
REMARK  413  A    between atoms: _850  and  _853
REMARK  414  A    between atoms: _853  and  _854
REMARK  415  A    between atoms: _854  and  _855
REMARK  416  A    between atoms: _858  and  _859
REMARK  417  A    between atoms: _859  and  _860
REMARK  418  A    between atoms: _863  and  _864
REMARK  419  A    between atoms: _864  and  _865
REMARK  420  A    between atoms: _867  and  _868
REMARK  421  A    between atoms: _868  and  _869
REMARK  422  A    between atoms: _872  and  _873
REMARK  423  A    between atoms: _873  and  _874
REMARK  424  A    between atoms: _873  and  _876
REMARK  425  A    between atoms: _876  and  _877
REMARK  426  A    between atoms: _880  and  _881
REMARK  427  A    between atoms: _881  and  _882
REMARK  428  A    between atoms: _881  and  _884
REMARK  429  A    between atoms: _884  and  _885
REMARK  430  A    between atoms: _888  and  _889
REMARK  431  A    between atoms: _889  and  _890
REMARK  432  A    between atoms: _889  and  _892
REMARK  433  A    between atoms: _894  and  _895
REMARK  434  A    between atoms: _895  and  _896
REMARK  435  A    between atoms: _895  and  _898
REMARK  436  A    between atoms: _898  and  _899
REMARK  437  A    between atoms: _899  and  _900
REMARK  438  A    between atoms: _902  and  _903
REMARK  439  A    between atoms: _903  and  _904
REMARK  440  A    between atoms: _903  and  _906
REMARK  441  A    between atoms: _906  and  _907
REMARK  442  A    between atoms: _910  and  _911
REMARK  443  A    between atoms: _911  and  _912
REMARK  444  A    between atoms: _914  and  _915
REMARK  445  A    between atoms: _915  and  _916
REMARK  446  A    between atoms: _915  and  _918
REMARK  447  A    between atoms: _918  and  _919
REMARK  448  A    between atoms: _919  and  _920
REMARK  449  A    between atoms: _923  and  _924
REMARK  450  A    between atoms: _924  and  _925
REMARK  451  A    between atoms: _924  and  _927
REMARK  452  A    between atoms: _927  and  _928
REMARK  453  A    between atoms: _934  and  _935
REMARK  454  A    between atoms: _935  and  _936
REMARK  455  A    between atoms: _938  and  _939
REMARK  456  A    between atoms: _939  and  _940
REMARK  457  A    between atoms: _939  and  _942
REMARK  458  A    between atoms: _945  and  _946
REMARK  459  A    between atoms: _946  and  _947
REMARK  460  A    between atoms: _949  and  _950
REMARK  461  A    between atoms: _950  and  _951
REMARK  462  A    between atoms: _950  and  _953
REMARK  463  A    between atoms: _953  and  _954
REMARK  464  A    between atoms: _960  and  _961
REMARK  465  A    between atoms: _961  and  _962
REMARK  466  A    between atoms: _961  and  _964
REMARK  467  A    between atoms: _964  and  _965
REMARK  468  A    between atoms: _972  and  _973
REMARK  469  A    between atoms: _973  and  _974
REMARK  470  A    between atoms: _973  and  _976
REMARK  471  A    between atoms: _978  and  _979
REMARK  472  A    between atoms: _979  and  _980
REMARK  473  A    between atoms: _983  and  _984
REMARK  474  A    between atoms: _984  and  _985
REMARK  475  A    between atoms: _984  and  _987
REMARK  476  A    between atoms: _987  and  _988
REMARK  477  A    between atoms: _995  and  _996
REMARK  478  A    between atoms: _996  and  _997
REMARK  479  A    between atoms: _996  and  _999
REMARK  480  A    between atoms: _999  and  _1000
REMARK  481  A    between atoms: _1003  and  _1004
REMARK  482  A    between atoms: _1004  and  _1005
REMARK  483  A    between atoms: _1004  and  _1007
REMARK  484  A    between atoms: _1010  and  _1011
REMARK  485  A    between atoms: _1011  and  _1012
REMARK  486  A    between atoms: _1015  and  _1016
REMARK  487  A    between atoms: _1016  and  _1017
REMARK  488  A    between atoms: _1016  and  _1019
REMARK  489  A    between atoms: _1019  and  _1020
REMARK  490  A    between atoms: _1020  and  _1021
REMARK  491  A    between atoms: _1024  and  _1025
REMARK  492  A    between atoms: _1025  and  _1026
REMARK  493  A    between atoms: _1025  and  _1028
REMARK  494  A    between atoms: _1028  and  _1029
REMARK  495  A    between atoms: _1029  and  _1030
REMARK  496  A    between atoms: _1030  and  _1031
REMARK  497  A    between atoms: _1033  and  _1034
REMARK  498  A    between atoms: _1034  and  _1035
REMARK  499  A    between atoms: _1034  and  _1037
REMARK  500  A    between atoms: _1040  and  _1041
REMARK  501  A    between atoms: _1041  and  _1042
REMARK  502  A    between atoms: _1041  and  _1044
REMARK  503  A    between atoms: _1047  and  _1048
REMARK  504  A    between atoms: _1048  and  _1049
REMARK  505  A    between atoms: _1048  and  _1051
REMARK  506  A    between atoms: _1054  and  _1055
REMARK  507  A    between atoms: _1055  and  _1056
REMARK  508  A    between atoms: _1055  and  _1058
REMARK  509  A    between atoms: _1058  and  _1059
REMARK  510  A    between atoms: _1062  and  _1063
REMARK  511  A    between atoms: _1063  and  _1064
REMARK  512  A    between atoms: _1063  and  _1066
REMARK  513  A    between atoms: _1069  and  _1070
REMARK  514  A    between atoms: _1070  and  _1071
REMARK  515  A    between atoms: _1070  and  _1073
REMARK  516  A    between atoms: _1073  and  _1074
REMARK  517  A    between atoms: _1074  and  _1075
REMARK  518  A    between atoms: _1075  and  _1076
REMARK  519  A    between atoms: _1078  and  _1079
REMARK  520  A    between atoms: _1079  and  _1080
REMARK  521  A    between atoms: _1079  and  _1082
REMARK  522  A    between atoms: _1082  and  _1083
REMARK  523  A    between atoms: _1088  and  _1089
REMARK  524  A    between atoms: _1089  and  _1090
REMARK  525  A    between atoms: _1089  and  _1092
REMARK  526  A    between atoms: _1092  and  _1093
REMARK  527  A    between atoms: _1096  and  _1097
REMARK  528  A    between atoms: _1097  and  _1098
REMARK  529  A    between atoms: _1097  and  _1100
REMARK  530  A    between atoms: _1100  and  _1101
REMARK  531  A    between atoms: _1104  and  _1105
REMARK  532  A    between atoms: _1105  and  _1106
REMARK  533  A    between atoms: _1105  and  _1108
REMARK  534  A    between atoms: _1108  and  _1109
REMARK  535  A    between atoms: _1112  and  _1113
REMARK  536  A    between atoms: _1113  and  _1114
REMARK  537  A    between atoms: _1113  and  _1116
REMARK  538  A    between atoms: _1116  and  _1117
REMARK  539  A    between atoms: _1117  and  _1118
REMARK  540  A    between atoms: _1121  and  _1122
REMARK  541  A    between atoms: _1122  and  _1123
REMARK  542  A    between atoms: _1122  and  _1125
REMARK  543  A    between atoms: _1125  and  _1126
REMARK  544  A    between atoms: _1126  and  _1127
REMARK  545  A    between atoms: _1130  and  _1131
REMARK  546  A    between atoms: _1131  and  _1132
REMARK  547  A    between atoms: _1131  and  _1134
REMARK  548  A    between atoms: _1134  and  _1135
REMARK  549  A    between atoms: _1142  and  _1143
REMARK  550  A    between atoms: _1143  and  _1144
REMARK  551  A    between atoms: _1147  and  _1148
REMARK  552  A    between atoms: _1148  and  _1149
REMARK  553  A    between atoms: _1148  and  _1151
REMARK  554  A    between atoms: _1151  and  _1152
REMARK  555  A    between atoms: _1161  and  _1162
REMARK  556  A    between atoms: _1162  and  _1163
REMARK  557  A    between atoms: _1162  and  _1165
REMARK  558  A    between atoms: _1165  and  _1166
REMARK  559  A    between atoms: _1166  and  _1167
REMARK  560  A    between atoms: _1170  and  _1171
REMARK  561  A    between atoms: _1171  and  _1172
REMARK  562  A    between atoms: _1171  and  _1174
REMARK  563  A    between atoms: _1176  and  _1177
REMARK  564  A    between atoms: _1177  and  _1178
REMARK  565  A    between atoms: _1177  and  _1180
REMARK  566  A    between atoms: _1182  and  _1183
REMARK  567  A    between atoms: _1183  and  _1184
REMARK  568  A    between atoms: _1187  and  _1188
REMARK  569  A    between atoms: _1188  and  _1189
REMARK  570  A    between atoms: _1191  and  _1192
REMARK  571  A    between atoms: _1192  and  _1193
REMARK  572  A    between atoms: _1195  and  _1196
REMARK  573  A    between atoms: _1196  and  _1197
REMARK  574  A    between atoms: _1196  and  _1199
REMARK  575  A    between atoms: _1201  and  _1202
REMARK  576  A    between atoms: _1202  and  _1203
REMARK  577  A    between atoms: _1202  and  _1205
REMARK  578  A    between atoms: _1205  and  _1206
REMARK  579  A    between atoms: _1212  and  _1213
REMARK  580  A    between atoms: _1213  and  _1214
REMARK  581  A    between atoms: _1213  and  _1216
REMARK  582  A    between atoms: _1219  and  _1220
REMARK  583  A    between atoms: _1220  and  _1221
REMARK  584  A    between atoms: _1220  and  _1223
REMARK  585  A    between atoms: _1226  and  _1227
REMARK  586  A    between atoms: _1227  and  _1228
REMARK  587  A    between atoms: _1227  and  _1230
REMARK  588  A    between atoms: _1230  and  _1231
REMARK  589  A    between atoms: _1231  and  _1232
REMARK  590  A    between atoms: _1232  and  _1233
REMARK  591  A    between atoms: _1237  and  _1238
REMARK  592  A    between atoms: _1238  and  _1239
REMARK  593  A    between atoms: _1238  and  _1241
REMARK  594  A    between atoms: _1244  and  _1245
REMARK  595  A    between atoms: _1245  and  _1246
REMARK  596  A    between atoms: _1245  and  _1248
REMARK  597  A    between atoms: _1248  and  _1249
REMARK  598  A    between atoms: _1252  and  _1253
REMARK  599  A    between atoms: _1253  and  _1254
REMARK  600  A    between atoms: _1253  and  _1256
REMARK  601  A    between atoms: _1259  and  _1260
REMARK  602  A    between atoms: _1260  and  _1261
REMARK  603  A    between atoms: _1263  and  _1264
REMARK  604  A    between atoms: _1264  and  _1265
REMARK  605  A    between atoms: _1264  and  _1267
REMARK  606  A    between atoms: _1267  and  _1268
REMARK  607  A    between atoms: _1268  and  _1269
REMARK  608  A    between atoms: _1273  and  _1274
REMARK  609  A    between atoms: _1279  and  _1280
REMARK  610  A    between atoms: _1280  and  _1285
REMARK  611  A    between atoms: _1285  and  _1286
REMARK  612  A    between atoms: _1286  and  _1287
REMARK  613  A    between atoms: _1287  and  _1289
REMARK  614  A    between atoms: _1292  and  _1293
REMARK  615  A    between atoms: _1293  and  _1294
REMARK  616  A    between atoms: _1296  and  _1297
REMARK  617  A    between atoms: _1297  and  _1298
REMARK  618  A    between atoms: _1297  and  _1300
REMARK  619  A    between atoms: _1300  and  _1301
REMARK  620  A    between atoms: _1301  and  _1302
REMARK  621  A    between atoms: _1302  and  _1303
REMARK  622  A    between atoms: _1307  and  _1308
REMARK  623  A    between atoms: _1308  and  _1309
REMARK  624  A    between atoms: _1311  and  _1312
REMARK  625  A    between atoms: _1312  and  _1313
REMARK  626  A    between atoms: _1312  and  _1315
REMARK  627  A    between atoms: _1318  and  _1319
REMARK  628  A    between atoms: _1319  and  _1320
REMARK  629  A    between atoms: _1319  and  _1322
REMARK  630  A    between atoms: _1322  and  _1323
REMARK  631  A    between atoms: _1323  and  _1324
REMARK  632  A    between atoms: _1324  and  _1325
REMARK  633  A    between atoms: _1327  and  _1328
REMARK  634  A    between atoms: _1328  and  _1329
REMARK  635  A    between atoms: _1328  and  _1331
REMARK  636  A    between atoms: _1334  and  _1335
REMARK  637  A    between atoms: _1335  and  _1336
REMARK  638  A    between atoms: _1335  and  _1338
REMARK  639  A    between atoms: _1338  and  _1339
REMARK  640  A    between atoms: _1342  and  _1343
REMARK  641  A    between atoms: _1343  and  _1344
REMARK  642  A    between atoms: _1343  and  _1346
REMARK  643  A    between atoms: _1346  and  _1347
REMARK  644  A    between atoms: _1350  and  _1351
REMARK  645  A    between atoms: _1351  and  _1352
REMARK  646  A    between atoms: _1351  and  _1354
REMARK  647  A    between atoms: _1354  and  _1355
REMARK  648  A    between atoms: _1360  and  _1361
REMARK  649  A    between atoms: _1361  and  _1362
REMARK  650  A    between atoms: _1361  and  _1364
REMARK  651  A    between atoms: _1364  and  _1365
REMARK  652  A    between atoms: _1368  and  _1369
REMARK  653  A    between atoms: _1369  and  _1370
REMARK  654  A    between atoms: _1369  and  _1372
REMARK  655  A    between atoms: _1372  and  _1373
REMARK  656  A    between atoms: _1373  and  _1374
REMARK  657  A    between atoms: _1374  and  _1375
REMARK  658  A    between atoms: _1377  and  _1378
REMARK  659  A    between atoms: _1378  and  _1379
REMARK  660  A    between atoms: _1378  and  _1381
REMARK  661  A    between atoms: _1381  and  _1382
REMARK  662  A    between atoms: _1382  and  _1383
REMARK  663  A    between atoms: _1386  and  _1387
REMARK  664  A    between atoms: _1387  and  _1388
REMARK  665  A    between atoms: _1387  and  _1390
REMARK  666  A    between atoms: _1390  and  _1391
REMARK  667  A    between atoms: _1394  and  _1395
REMARK  668  A    between atoms: _1395  and  _1396
REMARK  669  A    between atoms: _1395  and  _1398
REMARK  670  A    between atoms: _1398  and  _1399
REMARK  671  A    between atoms: _1399  and  _1400
REMARK  672  A    between atoms: _1403  and  _1404
REMARK  673  A    between atoms: _1404  and  _1405
REMARK  674  A    between atoms: _1404  and  _1407
REMARK  675  A    between atoms: _1410  and  _1411
REMARK  676  A    between atoms: _1411  and  _1412
REMARK  677  A    between atoms: _1411  and  _1414
REMARK  678  A    between atoms: _1414  and  _1415
REMARK  679  A    between atoms: _1415  and  _1416
REMARK  680  A    between atoms: _1419  and  _1420
REMARK  681  A    between atoms: _1420  and  _1421
REMARK  682  A    between atoms: _1420  and  _1423
REMARK  683  A    between atoms: _1423  and  _1424
REMARK  684  A    between atoms: _1431  and  _1432
REMARK  685  A    between atoms: _1432  and  _1433
REMARK  686  A    between atoms: _1432  and  _1435
REMARK  687  A    between atoms: _1435  and  _1436
REMARK  688  A    between atoms: _1439  and  _1440
REMARK  689  A    between atoms: _1440  and  _1441
REMARK  690  A    between atoms: _1440  and  _1443
REMARK  691  A    between atoms: _1443  and  _1444
REMARK  692  A    between atoms: _1444  and  _1445
REMARK  693  A    between atoms: _1448  and  _1449
REMARK  694  A    between atoms: _1449  and  _1450
REMARK  695  A    between atoms: _1449  and  _1452
REMARK  696  A    between atoms: _1452  and  _1453
REMARK  697  A    between atoms: _1453  and  _1454
REMARK  698  A    between atoms: _1457  and  _1458
REMARK  699  A    between atoms: _1458  and  _1459
REMARK  700  A    between atoms: _1458  and  _1461
REMARK  701  A    between atoms: _1461  and  _1462
REMARK  702  A    between atoms: _1462  and  _1463
REMARK  703  A    between atoms: _1463  and  _1464
REMARK  704  A    between atoms: _1468  and  _1469
REMARK  705  A    between atoms: _1469  and  _1470
REMARK  706  A    between atoms: _1469  and  _1472
REMARK  707  A    between atoms: _1472  and  _1473
REMARK  708  A    between atoms: _1473  and  _1474
REMARK  709  A    between atoms: _1474  and  _1475
REMARK  710  A    between atoms: _1479  and  _1480
REMARK  711  A    between atoms: _1480  and  _1481
REMARK  712  A    between atoms: _1480  and  _1483
REMARK  713  A    between atoms: _1483  and  _1484
REMARK  714  A    between atoms: _1487  and  _1488
REMARK  715  A    between atoms: _1488  and  _1489
REMARK  716  A    between atoms: _1488  and  _1491
REMARK  717  A    between atoms: _1491  and  _1492
REMARK  718  A    between atoms: _1492  and  _1493
REMARK  719  A    between atoms: _1493  and  _1494
REMARK  720  A    between atoms: _1496  and  _1497
REMARK  721  A    between atoms: _1497  and  _1498
REMARK  722  A    between atoms: _1497  and  _1500
REMARK  723  A    between atoms: _1500  and  _1501
REMARK  724  A    between atoms: _1501  and  _1502
REMARK  725  A    between atoms: _1505  and  _1506
REMARK  726  A    between atoms: _1506  and  _1507
REMARK  727  A    between atoms: _1506  and  _1509
REMARK  728  A    between atoms: _1509  and  _1510
REMARK  729  A    between atoms: _1513  and  _1514
REMARK  730  A    between atoms: _1514  and  _1515
REMARK  731  A    between atoms: _1514  and  _1517
REMARK  732  A    between atoms: _1520  and  _1521
REMARK  733  A    between atoms: _1521  and  _1522
REMARK  734  A    between atoms: _1521  and  _1524
REMARK  735  A    between atoms: _1524  and  _1525
REMARK  736  A    between atoms: _1525  and  _1526
REMARK  737  A    between atoms: _1526  and  _1527
REMARK  738  A    between atoms: _1529  and  _1530
REMARK  739  A    between atoms: _1530  and  _1531
REMARK  740  A    between atoms: _1530  and  _1533
REMARK  741  A    between atoms: _1533  and  _1534
REMARK  742  A    between atoms: _1534  and  _1535
REMARK  743  A    between atoms: _1535  and  _1536
REMARK  744  A    between atoms: _1538  and  _1539
REMARK  745  A    between atoms: _1539  and  _1540
REMARK  746  A    between atoms: _1539  and  _1542
REMARK  747  A    between atoms: _1542  and  _1543
REMARK  748  A    between atoms: _1548  and  _1549
REMARK  749  A    between atoms: _1549  and  _1550
REMARK  750  A    between atoms: _1549  and  _1552
REMARK  751  A    between atoms: _1554  and  _1555
REMARK  752  A    between atoms: _1555  and  _1556
REMARK  753  A    between atoms: _1555  and  _1558
REMARK  754  A    between atoms: _1558  and  _1559
REMARK  755  A    between atoms: _1559  and  _1560
REMARK  756  A    between atoms: _1563  and  _1564
REMARK  757  A    between atoms: _1564  and  _1565
REMARK  758  A    between atoms: _1564  and  _1567
REMARK  759  A    between atoms: _1567  and  _1568
REMARK  760  A    between atoms: _1574  and  _1575
REMARK  761  A    between atoms: _1575  and  _1576
REMARK  762  A    between atoms: _1575  and  _1578
REMARK  763  A    between atoms: _1578  and  _1579
REMARK  764  A    between atoms: _1582  and  _1583
REMARK  765  A    between atoms: _1583  and  _1584
REMARK  766  A    between atoms: _1586  and  _1587
REMARK  767  A    between atoms: _1587  and  _1588
REMARK  768  A    between atoms: _1587  and  _1590
REMARK  769  A    between atoms: _1590  and  _1591
REMARK  770  A    between atoms: _1599  and  _1600
REMARK  771  A    between atoms: _1605  and  _1606
REMARK  772  A    between atoms: _1606  and  _1607
REMARK  773  A    between atoms: _1606  and  _1609
REMARK  774  A    between atoms: _1609  and  _1610
REMARK  775  A    between atoms: _1613  and  _1614
REMARK  776  A    between atoms: _1614  and  _1615
REMARK  777  A    between atoms: _1614  and  _1617
REMARK  778  A    between atoms: _1620  and  _1621
REMARK  779  A    between atoms: _1621  and  _1622
REMARK  780  A    between atoms: _1621  and  _1624
REMARK  781  A    between atoms: _1624  and  _1625
REMARK  782  A    between atoms: _1628  and  _1629
REMARK  783  A    between atoms: _1629  and  _1630
REMARK  784  A    between atoms: _1629  and  _1632
REMARK  785  A    between atoms: _1632  and  _1633
REMARK  786  A    between atoms: _1639  and  _1640
REMARK  787  A    between atoms: _1640  and  _1641
REMARK  788  A    between atoms: _1640  and  _1643
REMARK  789  A    between atoms: _1646  and  _1647
REMARK  790  A    between atoms: _1647  and  _1648
REMARK  791  A    between atoms: _1647  and  _1650
REMARK  792  A    between atoms: _1650  and  _1651
REMARK  793  A    between atoms: _1651  and  _1652
REMARK  794  A    between atoms: _1655  and  _1656
REMARK  795  A    between atoms: _1656  and  _1657
REMARK  796  A    between atoms: _1656  and  _1659
REMARK  797  A    between atoms: _1659  and  _1660
REMARK  798  A    between atoms: _1660  and  _1661
REMARK                            x       y       z     vdW  Elec       q    Type
REMARK                         _______ _______ _______ _____ _____    ______ ____
ROOT
ATOM      1  C   UNL     1      -9.074 -17.850  18.391  0.00  0.00    +0.000 C 
ENDROOT
TORSDOF 0
