@<TRIPOS>MOLECULE
H0T
   68    74     1     0     0
SMALL
bcc


@<TRIPOS>ATOM
      1 H29         -2.3210    39.3740    20.0560 h1         0 H0T       0.073333
      2 H27         -1.7020    36.4490    23.2680 h1         0 H0T       0.098500
      3 H28         -4.0110    39.6970    20.5110 h1         0 H0T       0.073333
      4 H01         -3.1480    35.1600    25.3060 ha         0 H0T       0.163000
      5 H13         -2.8920    40.2290    22.8010 h1         0 H0T       0.080000
      6 H10         -3.1820    40.0170    27.2740 ha         0 H0T       0.167000
      7 H03         -0.2770    36.0020    28.3930 ha         0 H0T       0.173000
      8 H30         -3.5670    38.1310    19.7920 h1         0 H0T       0.073333
      9 H09         -3.8010    35.3310    28.7710 ha         0 H0T       0.146000
     10 H04         -5.6290    33.4530    23.0940 h1         0 H0T       0.108000
     11 H07         -8.5650    29.4130    23.5550 ha         0 H0T       0.133500
     12 H06         -7.8200    31.5610    22.6030 ha         0 H0T       0.137500
     13 H17          2.3050    31.4080    24.0060 hn         0 H0T       0.196500
     14 H05         -5.0280    32.5550    21.7000 h1         0 H0T       0.108000
     15 H12         -4.0670    37.7970    24.2170 h1         0 H0T       0.098500
     16 H11         -3.6590    39.3680    24.9500 h1         0 H0T       0.098500
     17 H02          1.3030    34.4180    27.4310 ha         0 H0T       0.144000
     18 H26         -0.2500    37.4490    23.5430 h1         0 H0T       0.098500
     19 H16          1.7250    32.8590    25.6530 hn         0 H0T       0.229000
     20 H15         -1.6840    33.3820    22.9390 DU         0 H0T       0.147000
     21 H14         -4.5250    39.5620    22.5940 h1         0 H0T       0.080000
     22 H25         -1.1550    37.5550    21.1840 h1         0 H0T       0.080000
     23 H20         -2.8450    30.6410    23.3020 h1         0 H0T       0.108000
     24 H19         -3.1300    31.2560    24.9260 h1         0 H0T       0.108000
     25 H18          1.1740    31.0430    22.7230 hn         0 H0T       0.196500
     26 H21         -4.6010    28.6810    24.9780 ha         0 H0T       0.137500
     27 H24         -1.0310    39.1340    21.9990 h1         0 H0T       0.080000
     28 H23         -4.9070    39.4570    28.9410 ha         0 H0T       0.142000
     29 H22         -5.2260    37.1300    29.6820 ha         0 H0T       0.139000
     30 H08         -6.9500    27.9770    24.7480 ha         0 H0T       0.133500
     31 C           -1.2700    34.0980    25.1950 ca         0 H0T      -0.166000
     32 C1          -2.8910    33.5640    23.3880 c3         0 H0T       0.311000
     33 O           -3.1950    34.6210    22.8980 o          0 H0T      -0.374000
     34 C2          -2.1710    34.9930    25.7590 ca         0 H0T      -0.063000
     35 C3           0.3340    34.5810    26.9580 ca         0 H0T      -0.180000
     36 C4          -1.8010    35.6650    26.9040 cp         0 H0T      -0.122000
     37 C5          -0.5460    35.4530    27.4910 ca         0 H0T      -0.050000
     38 C6           0.4950    32.4100    24.1250 c2         0 H0T       0.167000
     39 C7          -2.6960    36.6730    27.4990 cq         0 H0T       0.096000
     40 C8          -5.0890    32.5570    22.7880 c3         0 H0T       0.007000
     41 C9          -5.7960    31.3240    23.2650 ca         0 H0T      -0.098000
     42 C10         -7.1100    30.9240    23.1310 ca         0 H0T      -0.108000
     43 C11         -7.5270    29.7270    23.6600 ca         0 H0T      -0.127500
     44 C12         -6.6240    28.9270    24.3240 ca         0 H0T      -0.127500
     45 C13         -3.6660    36.3600    28.4390 ca         0 H0T      -0.150000
     46 C14         -3.3090    38.9840    27.5980 ca         0 H0T      -0.041000
     47 C15         -3.3870    38.6480    24.1780 c3         0 H0T      -0.012000
     48 C16         -3.4850    39.3150    22.8070 c3         0 H0T      -0.080500
     49 N           -3.7500    32.5400    23.3640 n3         0 H0T      -0.305000
     50 C17         -1.5730    33.3840    24.0230 c3         0 H0T       0.012000
     51 C18         -0.0080    33.8900    25.7960 ca         0 H0T       0.072000
     52 N1          -0.6760    32.5550    23.5340 n2         0 H0T      -0.265000
     53 N2           0.8250    33.0340    25.2300 nh         0 H0T      -0.283000
     54 N3           1.4050    31.5440    23.5690 n3         0 H0T      -0.313000
     55 C19         -3.5460    31.2020    23.9200 c3         0 H0T       0.007000
     56 C20         -4.8920    30.5240    23.9260 ca         0 H0T      -0.098000
     57 C21         -5.3110    29.3210    24.4550 ca         0 H0T      -0.108000
     58 C22         -4.4560    37.3640    28.9470 ca         0 H0T      -0.068000
     59 C23         -4.2770    38.6680    28.5300 ca         0 H0T      -0.154000
     60 C24         -2.5060    37.9990    27.0790 ca         0 H0T      -0.797000
     61 S           -1.2960    38.4640    25.8680 s6         0 H0T       2.844000
     62 O1          -1.1790    39.8670    25.9330 o          0 H0T      -0.938000
     63 O2          -0.1720    37.6230    25.9240 o          0 H0T      -0.938000
     64 N4          -2.0120    38.1860    24.4070 n3         0 H0T      -0.835000
     65 N5          -2.9800    38.3930    21.7880 n3         0 H0T      -0.255000
     66 C25         -1.5460    38.1730    21.9920 c3         0 H0T      -0.080500
     67 C26         -1.3180    37.4670    23.3280 c3         0 H0T      -0.012000
     68 C27         -3.2360    38.9330    20.4510 c3         0 H0T      -0.119000
@<TRIPOS>BOND
     1     1    68 1   
     2     2    67 1   
     3     3    68 1   
     4     4    34 1   
     5     5    48 1   
     6     6    46 1   
     7     7    37 1   
     8     8    68 1   
     9     9    45 1   
    10    10    40 1   
    11    11    43 1   
    12    12    42 1   
    13    13    54 1   
    14    14    40 1   
    15    15    47 1   
    16    16    47 1   
    17    17    35 1   
    18    18    67 1   
    19    19    53 1   
    20    20    32 1   
    21    20    50 1   
    22    21    48 1   
    23    22    66 1   
    24    23    55 1   
    25    24    55 1   
    26    25    54 1   
    27    26    57 1   
    28    27    66 1   
    29    28    59 1   
    30    29    58 1   
    31    30    44 1   
    32    31    34 1   
    33    31    50 1   
    34    31    51 1   
    35    32    33 1   
    36    32    49 1   
    37    32    50 1   
    38    34    36 1   
    39    35    37 1   
    40    35    51 1   
    41    36    37 1   
    42    36    39 1   
    43    38    52 1   
    44    38    53 1   
    45    38    54 1   
    46    39    45 1   
    47    39    60 1   
    48    40    41 1   
    49    40    49 1   
    50    41    42 1   
    51    41    56 1   
    52    42    43 1   
    53    43    44 1   
    54    44    57 1   
    55    45    58 1   
    56    46    59 1   
    57    46    60 1   
    58    47    48 1   
    59    47    64 1   
    60    48    65 1   
    61    49    55 1   
    62    50    52 1   
    63    51    53 1   
    64    55    56 1   
    65    56    57 1   
    66    58    59 1   
    67    60    61 1   
    68    61    62 1   
    69    61    63 1   
    70    61    64 1   
    71    64    67 1   
    72    65    66 1   
    73    65    68 1   
    74    66    67 1   
@<TRIPOS>SUBSTRUCTURE
     1 H0T         1 TEMP              0 ****  ****    0 ROOT
