@<TRIPOS>MOLECULE
H0T
   64    69     1     0     0
SMALL
bcc


@<TRIPOS>ATOM
      1 C1          -1.2700    34.0980    25.1950 ca       301 H0T      -0.307600
      2 C2          -2.8910    33.5640    23.3880 c        301 H0T       0.586600
      3 N3          -3.7500    32.5400    23.3640 n        301 H0T      -0.212200
      4 O4          -3.1950    34.6210    22.8980 o        301 H0T      -0.510100
      5 C5          -1.5730    33.3840    24.0230 ca       301 H0T       0.462800
      6 C6          -0.0080    33.8900    25.7960 ca       301 H0T       0.473600
      7 C7          -2.1710    34.9930    25.7590 ca       301 H0T      -0.057000
      8 N8          -0.6760    32.5550    23.5340 nb       301 H0T      -0.707000
      9 C9           0.3340    34.5810    26.9580 ca       301 H0T      -0.196300
     10 N10          0.8250    33.0340    25.2300 nb       301 H0T      -0.747000
     11 C11         -1.8010    35.6650    26.9040 cp       301 H0T      -0.099000
     12 C12         -0.5460    35.4530    27.4910 ca       301 H0T      -0.055000
     13 C13          0.4950    32.4100    24.1250 ca       301 H0T       0.878900
     14 N14          1.4050    31.5440    23.5690 nh       301 H0T      -0.927500
     15 C15         -2.6960    36.6730    27.4990 cp       301 H0T       0.087000
     16 C16         -5.0890    32.5570    22.7880 cc       301 H0T      -0.108900
     17 C17         -3.5460    31.2020    23.9200 cc       301 H0T      -0.108900
     18 C18         -4.8920    30.5240    23.9260 ca       301 H0T      -0.086000
     19 C19         -5.7960    31.3240    23.2650 ca       301 H0T      -0.086000
     20 C20         -7.1100    30.9240    23.1310 ca       301 H0T      -0.092500
     21 C21         -7.5270    29.7270    23.6600 ca       301 H0T      -0.132000
     22 C22         -6.6240    28.9270    24.3240 ca       301 H0T      -0.132000
     23 C23         -5.3110    29.3210    24.4550 ca       301 H0T      -0.092500
     24 C24         -3.6660    36.3600    28.4390 ca       301 H0T      -0.151000
     25 C25         -4.4560    37.3640    28.9470 ca       301 H0T      -0.069000
     26 C26         -4.2770    38.6680    28.5300 ca       301 H0T      -0.151000
     27 C27         -3.3090    38.9840    27.5980 ca       301 H0T      -0.042000
     28 C28         -2.5060    37.9990    27.0790 ca       301 H0T      -0.344500
     29 S29         -1.2960    38.4640    25.8680 sy       301 H0T       1.503200
     30 O30         -1.1790    39.8670    25.9330 o        301 H0T      -0.656800
     31 O31         -0.1720    37.6230    25.9240 o        301 H0T      -0.656800
     32 N32         -2.0120    38.1860    24.4070 n3       301 H0T      -0.817500
     33 C33         -3.3870    38.6480    24.1780 c3       301 H0T       0.223800
     34 C34         -3.4850    39.3150    22.8070 c3       301 H0T       0.155800
     35 N35         -2.9800    38.3930    21.7880 n3       301 H0T      -0.729600
     36 C36         -1.5460    38.1730    21.9920 c3       301 H0T       0.155800
     37 C37         -1.3180    37.4670    23.3280 c3       301 H0T       0.223800
     38 C38         -3.2360    38.9330    20.4510 c3       301 H0T       0.157100
     39 H01         -3.1480    35.1600    25.3060 ha       301 H0T       0.148000
     40 H02          1.3030    34.4180    27.4310 ha       301 H0T       0.163000
     41 H03         -0.2770    36.0020    28.3930 ha       301 H0T       0.177000
     42 H04          1.1740    31.0430    22.7230 hn       301 H0T       0.437300
     43 H05          2.3050    31.4080    24.0060 hn       301 H0T       0.437300
     44 H06         -5.5000    33.3240    22.1320 h4       301 H0T       0.185500
     45 H07         -2.6030    30.7780    24.2640 h4       301 H0T       0.185500
     46 H08         -7.8200    31.5610    22.6030 ha       301 H0T       0.133000
     47 H09         -8.5650    29.4130    23.5550 ha       301 H0T       0.129500
     48 H10         -6.9500    27.9770    24.7480 ha       301 H0T       0.129500
     49 H11         -4.6010    28.6810    24.9780 ha       301 H0T       0.133000
     50 H12         -3.8010    35.3310    28.7710 ha       301 H0T       0.145000
     51 H13         -5.2260    37.1300    29.6820 ha       301 H0T       0.140000
     52 H14         -4.9070    39.4570    28.9410 ha       301 H0T       0.143000
     53 H15         -3.1820    40.0170    27.2740 ha       301 H0T       0.168000
     54 H16         -3.6590    39.3680    24.9500 h1       301 H0T       0.060450
     55 H17         -4.0670    37.7970    24.2170 h1       301 H0T       0.060450
     56 H18         -2.8920    40.2290    22.8010 h1       301 H0T       0.041200
     57 H19         -4.5250    39.5620    22.5940 h1       301 H0T       0.041200
     58 H20         -1.0310    39.1340    21.9990 h1       301 H0T       0.041200
     59 H21         -1.1550    37.5550    21.1840 h1       301 H0T       0.041200
     60 H22         -1.7120    36.4530    23.2660 h1       301 H0T       0.060450
     61 H23         -0.2500    37.4380    23.5430 h1       301 H0T       0.060450
     62 H24         -4.0110    39.6970    20.5110 h1       301 H0T       0.034033
     63 H25         -2.3210    39.3740    20.0560 h1       301 H0T       0.034033
     64 H26         -3.5670    38.1310    19.7920 h1       301 H0T       0.034033
@<TRIPOS>BOND
     1     1     5 ar  
     2     1     6 ar  
     3     1     7 ar  
     4     2     3 1   
     5     2     4 2   
     6     2     5 1   
     7     3    16 1   
     8     3    17 1   
     9     5     8 ar  
    10     6     9 ar  
    11     6    10 ar  
    12     7    11 ar  
    13     7    39 1   
    14     8    13 ar  
    15     9    12 ar  
    16     9    40 1   
    17    10    13 ar  
    18    11    12 ar  
    19    11    15 1   
    20    12    41 1   
    21    13    14 1   
    22    14    42 1   
    23    14    43 1   
    24    15    24 ar  
    25    15    28 ar  
    26    16    19 2   
    27    16    44 1   
    28    17    18 2   
    29    17    45 1   
    30    18    19 ar  
    31    18    23 ar  
    32    19    20 ar  
    33    20    21 ar  
    34    20    46 1   
    35    21    22 ar  
    36    21    47 1   
    37    22    23 ar  
    38    22    48 1   
    39    23    49 1   
    40    24    25 ar  
    41    24    50 1   
    42    25    26 ar  
    43    25    51 1   
    44    26    27 ar  
    45    26    52 1   
    46    27    28 ar  
    47    27    53 1   
    48    28    29 1   
    49    29    30 2   
    50    29    31 2   
    51    29    32 1   
    52    32    33 1   
    53    32    37 1   
    54    33    34 1   
    55    33    54 1   
    56    33    55 1   
    57    34    35 1   
    58    34    56 1   
    59    34    57 1   
    60    35    36 1   
    61    35    38 1   
    62    36    37 1   
    63    36    58 1   
    64    36    59 1   
    65    37    60 1   
    66    37    61 1   
    67    38    62 1   
    68    38    63 1   
    69    38    64 1   
@<TRIPOS>SUBSTRUCTURE
     1 H0T         1 TEMP              0 ****  ****    0 ROOT
