@<TRIPOS>MOLECULE
/web/media/ligands/4DQB_ligand.pdb
 42 41 0 0 0
SMALL
GASTEIGER

@<TRIPOS>ATOM
      1 C          23.0170   29.3010   25.9920 C.3     1  UNL1        0.0000
      2 C          34.6690   36.3800   15.3770 C.3     2  UNL2        0.0000
      3 C          41.6380   15.5770   12.0170 C.3     3  UNL3        0.0000
      4 O          33.0170   29.2560   11.4920 O.3     4  HOH4        0.0000
      5 N          14.6300   35.1260   18.1870 N.pl3   5  UNL5       -0.1281
      6 C          15.5770   34.5670   17.3670 C.ar    5  UNL5        0.0892
      7 C          16.6270   35.2950   16.7880 C.ar    5  UNL5        0.0194
      8 C          17.5370   34.6370   15.9270 C.ar    5  UNL5        0.0213
      9 C          17.3770   33.2700   15.6730 C.ar    5  UNL5        0.1223
     10 C          16.3320   32.5850   16.2880 C.ar    5  UNL5        0.0213
     11 C          15.4400   33.2330   17.1170 C.ar    5  UNL5        0.0194
     12 S          18.4040   32.3690   14.7710 S.O2    5  UNL5        0.0634
     13 O          17.6230   31.2790   14.2240 O.2     5  UNL5       -0.1528
     14 O          19.0850   33.1860   13.8100 O.2     5  UNL5       -0.1528
     15 N          19.4700   31.7610   15.7660 N.3     5  UNL5       -0.1529
     16 C          20.3960   32.6890   16.4340 C.3     5  UNL5        0.0958
     17 C          21.8920   32.3580   16.4680 C.3     5  UNL5        0.0178
     18 C          22.5110   32.4160   15.0790 C.3     5  UNL5        0.0015
     19 C          22.5660   33.3870   17.3990 C.3     5  UNL5        0.0015
     20 C          19.1890   30.4480   16.3600 C.3     5  UNL5        0.1304
     21 C          20.1430   29.3560   15.8870 C.3     5  UNL5        0.1898
     22 O          20.0620   28.2310   16.7870 O.3     5  UNL5       -0.2197
     23 C          19.7880   28.8880   14.4780 C.3     5  UNL5        0.1347
     24 N          20.8470   28.0410   13.9700 N.am    5  UNL5       -0.1675
     25 C          21.7020   28.3730   13.0240 C.2     5  UNL5        0.4211
     26 O          21.8100   29.4390   12.4680 O.2     5  UNL5       -0.2246
     27 O          22.6080   27.3020   12.7250 O.3     5  UNL5       -0.4345
     28 C          23.4110   27.4200   11.5510 C.3     5  UNL5        0.2048
     29 C          24.7450   26.7990   11.9710 C.3     5  UNL5        0.1884
     30 O          24.4930   25.3940   11.8820 O.3     5  UNL5       -0.3265
     31 C          23.5210   25.1490   10.8610 C.3     5  UNL5        0.2388
     32 O          22.4910   24.3120   11.3990 O.3     5  UNL5       -0.3304
     33 C          21.2260   24.9900   11.3900 C.3     5  UNL5        0.1451
     34 C          21.3960   26.2040   10.4710 C.3     5  UNL5        0.0409
     35 C          22.8990   26.4780   10.4750 C.3     5  UNL5        0.1016
     36 C          18.4780   28.0900   14.3790 C.3     5  UNL5        0.0508
     37 C          18.1330   26.3730   12.5760 C.ar    5  UNL5       -0.0042
     38 C          17.9270   25.9840   11.2420 C.ar    5  UNL5       -0.0003
     39 C          17.6790   26.9490   10.2740 C.ar    5  UNL5       -0.0000
     40 C          17.7250   28.2960   10.6420 C.ar    5  UNL5       -0.0003
     41 C          17.9550   28.6840   11.9660 C.ar    5  UNL5       -0.0042
     42 C          18.1710   27.7150   12.9470 C.ar    5  UNL5       -0.0204
@<TRIPOS>BOND
     1     6     5    1
     2     7     6   ar
     3     8     7   ar
     4     9     8   ar
     5     9    10   ar
     6    10    11   ar
     7    11     6   ar
     8    12     9    1
     9    12    15    1
    10    13    12    2
    11    14    12    2
    12    15    20    1
    13    15    16    1
    14    16    17    1
    15    17    19    1
    16    18    17    1
    17    21    20    1
    18    21    22    1
    19    23    36    1
    20    23    21    1
    21    24    23    1
    22    25    24   am
    23    26    25    2
    24    27    25    1
    25    28    29    1
    26    28    27    1
    27    30    29    1
    28    31    32    1
    29    31    30    1
    30    33    32    1
    31    34    33    1
    32    35    34    1
    33    35    31    1
    34    35    28    1
    35    37    42   ar
    36    38    37   ar
    37    39    40   ar
    38    39    38   ar
    39    40    41   ar
    40    41    42   ar
    41    42    36    1
