@<TRIPOS>MOLECULE
/web/media/ligands/6ELO_ligand.pdb
 23 25 0 0 0
SMALL
GASTEIGER

@<TRIPOS>ATOM
      1 C          64.6630   32.3490   27.3720 C.ar    1  UNL1        0.1949
      2 C          63.4360   32.8660   26.9730 C.ar    1  UNL1        0.0837
      3 C          63.3540   33.6990   25.8680 C.ar    1  UNL1        0.2003
      4 C          67.1640   32.0540   26.9330 C.3     1  UNL1        0.0296
      5 C          67.3100   30.7270   26.1510 C.3     1  UNL1        0.0051
      6 C          64.4110   34.9630   24.0150 C.ar    1  UNL1        0.1071
      7 C          64.6980   36.7090   22.6170 C.ar    1  UNL1        0.0824
      8 C          65.0490   36.2330   23.8650 C.ar    1  UNL1        0.0370
      9 C          65.9750   36.8450   24.8660 C.ar    1  UNL1        0.0302
     10 C          67.7630   37.9930   26.7150 C.ar    1  UNL1        0.0023
     11 C          66.4180   37.8480   27.0410 C.ar    1  UNL1        0.0001
     12 C          65.5240   37.2790   26.1230 C.ar    1  UNL1        0.0023
     13 C          64.5090   34.0590   25.1720 C.ar    1  UNL1        0.0582
     14 C          65.7490   33.5380   25.5580 C.ar    1  UNL1        0.0036
     15 C          65.8160   32.6440   26.6370 C.ar    1  UNL1        0.0170
     16 O          64.6760   31.5310   28.4570 O.3     1  UNL1       -0.2868
     17 O          62.1370   34.1810   25.5060 O.3     1  UNL1       -0.2864
     18 N          63.6340   34.7630   22.9810 N.ar    1  UNL1       -0.1482
     19 N          63.7840   35.8550   22.1010 N.ar    1  UNL1       -0.1523
     20 C          67.3270   37.0050   24.5390 C.ar    1  UNL1        0.1402
     21 C          68.2090   37.5980   25.4550 C.ar    1  UNL1        0.0296
     22 F          67.7260   36.6450   23.2960 F       1  UNL1       -0.2042
     23 C          65.0800   38.0270   21.9790 C.3     1  UNL1        0.0541
@<TRIPOS>BOND
     1     1    16    1
     2     2     1   ar
     3     3     2   ar
     4     5     4    1
     5     6    13    1
     6     7     8   ar
     7     8     6   ar
     8     8     9    1
     9     9    12   ar
    10    10    11   ar
    11    12    11   ar
    12    13    14   ar
    13    13     3   ar
    14    14    15   ar
    15    15     4    1
    16    15     1   ar
    17    17     3    1
    18    18     6   ar
    19    19     7   ar
    20    19    18   ar
    21    20     9   ar
    22    20    21   ar
    23    21    10   ar
    24    22    20    1
    25    23     7    1
