@<TRIPOS>MOLECULE
C4T
   49    52     1     0     0
SMALL
bcc


@<TRIPOS>ATOM
      1 CL           5.3630    36.4520    25.5010 cl       302 C4T      -0.086400
      2 C1          -0.8020    33.8450    23.5170 ca       302 C4T      -0.249600
      3 C2          -1.9690    33.5610    24.2640 ca       302 C4T       0.213100
      4 C3          -1.9010    32.8990    25.4630 ca       302 C4T      -0.196000
      5 C4           0.4680    33.4750    23.9990 ca       302 C4T       0.005000
      6 O5          -3.1810    33.8770    23.7680 oh       302 C4T      -0.504100
      7 C6          -0.8740    34.5540    22.2180 c        302 C4T       0.684700
      8 N7          -0.4780    35.8570    22.0900 n        302 C4T      -0.468800
      9 O8          -1.2220    33.9180    21.2390 o        302 C4T      -0.629100
     10 C9           0.5400    32.8810    25.2620 ca       302 C4T      -0.252900
     11 C10         -0.6500    32.5790    25.9860 ca       302 C4T       0.000800
     12 N11         -0.2710    31.9880    27.1530 na       302 C4T      -0.018100
     13 N12          1.1190    31.9600    27.1850 nc       302 C4T      -0.516100
     14 C13          1.6400    32.4000    26.0820 cd       302 C4T       0.377900
     15 C14          3.1220    32.5580    25.7970 c3       302 C4T      -0.047400
     16 C15          3.7090    31.6340    24.7590 ca       302 C4T      -0.080300
     17 C16          4.2500    32.1790    23.5920 ca       302 C4T      -0.122000
     18 C17          4.9900    29.9750    22.9120 ca       302 C4T      -0.127000
     19 C18          4.4810    29.4380    24.0930 ca       302 C4T      -0.129000
     20 C19          4.8820    31.3490    22.6590 ca       302 C4T      -0.129000
     21 C20          3.8370    30.2640    25.0130 ca       302 C4T      -0.122000
     22 C21         -0.5170    36.4920    20.7720 c3       302 C4T       0.072300
     23 C22         -0.1690    36.7330    23.2420 c3       302 C4T       0.135300
     24 C23          1.2300    36.6780    23.7690 ca       302 C4T      -0.106300
     25 C24          2.3000    36.3110    22.9500 ca       302 C4T      -0.121000
     26 C25          3.7610    36.5410    24.8470 ca       302 C4T       0.016400
     27 C26          2.6920    36.8830    25.6740 ca       302 C4T      -0.122500
     28 C27          3.5690    36.2390    23.4950 ca       302 C4T      -0.122500
     29 C28          1.4190    36.9690    25.1200 ca       302 C4T      -0.121000
     30 H01         -2.8110    32.6280    25.9980 ha       302 C4T       0.163000
     31 H02          1.3660    33.6460    23.4060 ha       302 C4T       0.152000
     32 H03         -3.5140    33.1440    23.2450 ho       302 C4T       0.457000
     33 H04         -0.8900    31.6330    27.8680 hn       302 C4T       0.320700
     34 H05          3.6240    32.3010    26.7300 hc       302 C4T       0.068200
     35 H06          3.2880    33.5820    25.4620 hc       302 C4T       0.068200
     36 H07          4.1800    33.2510    23.4080 ha       302 C4T       0.135000
     37 H08          5.4730    29.3240    22.1830 ha       302 C4T       0.132000
     38 H09          4.5860    28.3730    24.2970 ha       302 C4T       0.130500
     39 H10          5.2890    31.7700    21.7390 ha       302 C4T       0.130500
     40 H11          3.4320    29.8410    25.9330 ha       302 C4T       0.135000
     41 H12         -0.5280    37.5750    20.8910 h1       302 C4T       0.051033
     42 H13          0.3640    36.1990    20.2010 h1       302 C4T       0.051033
     43 H14         -1.4160    36.1760    20.2420 h1       302 C4T       0.051033
     44 H15         -0.7970    36.3700    24.0560 h1       302 C4T       0.067200
     45 H16         -0.3690    37.7610    22.9400 h1       302 C4T       0.067200
     46 H17          2.1370    36.0850    21.8960 ha       302 C4T       0.143500
     47 H18          2.8510    37.0790    26.7340 ha       302 C4T       0.150500
     48 H19          4.4160    35.9480    22.8740 ha       302 C4T       0.150500
     49 H20          0.5720    37.2630    25.7400 ha       302 C4T       0.143500
@<TRIPOS>BOND
     1     1    26 1   
     2     2     3 ar  
     3     2     5 ar  
     4     2     7 1   
     5     3     4 ar  
     6     3     6 1   
     7     4    11 ar  
     8     4    30 1   
     9     5    10 ar  
    10     5    31 1   
    11     6    32 1   
    12     7     8 1   
    13     7     9 2   
    14     8    22 1   
    15     8    23 1   
    16    10    11 ar  
    17    10    14 1   
    18    11    12 1   
    19    12    13 1   
    20    12    33 1   
    21    13    14 2   
    22    14    15 1   
    23    15    16 1   
    24    15    34 1   
    25    15    35 1   
    26    16    17 ar  
    27    16    21 ar  
    28    17    20 ar  
    29    17    36 1   
    30    18    19 ar  
    31    18    20 ar  
    32    18    37 1   
    33    19    21 ar  
    34    19    38 1   
    35    20    39 1   
    36    21    40 1   
    37    22    41 1   
    38    22    42 1   
    39    22    43 1   
    40    23    24 1   
    41    23    44 1   
    42    23    45 1   
    43    24    25 ar  
    44    24    29 ar  
    45    25    28 ar  
    46    25    46 1   
    47    26    27 ar  
    48    26    28 ar  
    49    27    29 ar  
    50    27    47 1   
    51    28    48 1   
    52    29    49 1   
@<TRIPOS>SUBSTRUCTURE
     1 C4T         1 TEMP              0 ****  ****    0 ROOT
