@<TRIPOS>MOLECULE
C3Z
   46    50     1     0     0
SMALL
bcc


@<TRIPOS>ATOM
      1 C1          65.1030    33.1410    25.6100 ca       301 C3Z      -0.143000
      2 C2          65.1050    33.8540    24.4180 ca       301 C3Z       0.138100
      3 C3          66.3170    34.2320    23.7890 ca       301 C3Z      -0.110000
      4 C4          67.5400    33.8320    24.3200 ca       301 C3Z      -0.007000
      5 C5          66.3190    35.0920    22.5820 cc       301 C3Z      -0.065300
      6 C6          65.7020    34.8290    21.3940 cd       301 C3Z      -0.285300
      7 C7          65.9630    35.9030    20.5420 cd       301 C3Z       0.291200
      8 N8          66.7020    36.7810    21.1690 nc       301 C3Z      -0.495800
      9 N9          66.9190    36.3270    22.4730 na       301 C3Z       0.163300
     10 C10         67.7310    36.9690    23.4400 ca       301 C3Z       0.011800
     11 C11         69.0900    37.1780    23.1490 ca       301 C3Z      -0.120500
     12 C12         69.9280    37.7650    24.1040 ca       301 C3Z      -0.122500
     13 C13         69.4170    38.1250    25.3540 ca       301 C3Z      -0.128000
     14 C14         68.0660    37.9070    25.6490 ca       301 C3Z      -0.122500
     15 C15         67.2200    37.3400    24.6980 ca       301 C3Z      -0.120500
     16 O16         63.9330    34.2390    23.8710 oh       301 C3Z      -0.503100
     17 C17         66.3480    32.7530    26.1600 ca       301 C3Z      -0.039000
     18 C18         67.5620    33.1020    25.5110 ca       301 C3Z      -0.169000
     19 C19         68.6440    32.5660    26.3210 cc       301 C3Z      -0.086300
     20 N20         68.1080    32.0480    27.4080 na       301 C3Z       0.064800
     21 N21         66.7200    32.0960    27.3130 nc       301 C3Z      -0.283400
     22 C22         70.1180    32.7520    26.0280 c3       301 C3Z       0.024100
     23 C23         70.7190    31.8160    24.9990 ca       301 C3Z      -0.101300
     24 C24         70.7860    30.4410    25.2230 ca       301 C3Z      -0.129000
     25 C25         72.0010    30.1350    23.1500 ca       301 C3Z      -0.124000
     26 C26         71.9580    31.5150    22.9310 ca       301 C3Z      -0.125500
     27 C27         71.4180    29.6040    24.2990 ca       301 C3Z      -0.125500
     28 C28         71.3280    32.3490    23.8600 ca       301 C3Z      -0.129000
     29 H01         64.1680    32.8870    26.1090 ha       301 C3Z       0.165000
     30 H02         68.4700    34.0860    23.8120 ha       301 C3Z       0.142000
     31 H03         65.1140    33.9430    21.1540 ha       301 C3Z       0.172000
     32 H04         65.6070    35.9950    19.5160 h4       301 C3Z       0.046100
     33 H05         69.4910    36.8830    22.1800 ha       301 C3Z       0.154500
     34 H06         70.9790    37.9410    23.8730 ha       301 C3Z       0.139000
     35 H07         70.0710    38.5760    26.1000 ha       301 C3Z       0.136000
     36 H08         67.6740    38.1820    26.6280 ha       301 C3Z       0.139000
     37 H09         66.1660    37.1840    24.9280 ha       301 C3Z       0.154500
     38 H10         63.6100    33.5490    23.2870 ho       301 C3Z       0.430000
     39 H11         68.6250    31.6730    28.1900 hn       301 C3Z       0.329700
     40 H12         70.6320    32.5260    26.9630 hc       301 C3Z       0.074200
     41 H13         70.2610    33.7730    25.6740 hc       301 C3Z       0.074200
     42 H14         70.3430    30.0170    26.1240 ha       301 C3Z       0.136500
     43 H15         72.4870    29.4790    22.4270 ha       301 C3Z       0.137000
     44 H16         72.4150    31.9400    22.0370 ha       301 C3Z       0.137000
     45 H17         71.4550    28.5290    24.4780 ha       301 C3Z       0.137000
     46 H18         71.3120    33.4260    23.6940 ha       301 C3Z       0.136500
@<TRIPOS>BOND
     1     1     2 ar  
     2     1    17 ar  
     3     1    29 1   
     4     2     3 ar  
     5     2    16 1   
     6     3     4 ar  
     7     3     5 1   
     8     4    18 ar  
     9     4    30 1   
    10     5     6 2   
    11     5     9 1   
    12     6     7 1   
    13     6    31 1   
    14     7     8 2   
    15     7    32 1   
    16     8     9 1   
    17     9    10 1   
    18    10    11 ar  
    19    10    15 ar  
    20    11    12 ar  
    21    11    33 1   
    22    12    13 ar  
    23    12    34 1   
    24    13    14 ar  
    25    13    35 1   
    26    14    15 ar  
    27    14    36 1   
    28    15    37 1   
    29    16    38 1   
    30    17    18 ar  
    31    17    21 2   
    32    18    19 2   
    33    19    20 1   
    34    19    22 1   
    35    20    21 1   
    36    20    39 1   
    37    22    23 1   
    38    22    40 1   
    39    22    41 1   
    40    23    24 ar  
    41    23    28 ar  
    42    24    27 ar  
    43    24    42 1   
    44    25    26 ar  
    45    25    27 ar  
    46    25    43 1   
    47    26    28 ar  
    48    26    44 1   
    49    27    45 1   
    50    28    46 1   
@<TRIPOS>SUBSTRUCTURE
     1 C3Z         1 TEMP              0 ****  ****    0 ROOT
