@<TRIPOS>MOLECULE
C3Z
   46    50     1     0     0
SMALL
bcc


@<TRIPOS>ATOM
      1 H13         65.1140    33.9430    21.1540 ha         0 C3Z       0.172000
      2 H14         63.6100    33.5490    23.2870 ho         0 C3Z       0.430000
      3 H18         71.3120    33.4260    23.6940 ha         0 C3Z       0.136500
      4 H02         65.6070    35.9950    19.5160 h4         0 C3Z       0.046100
      5 H12         68.4700    34.0860    23.8120 ha         0 C3Z       0.142000
      6 H17         72.4150    31.9400    22.0370 ha         0 C3Z       0.137000
      7 H01         64.1680    32.8870    26.1090 ha         0 C3Z       0.165000
      8 H15         68.6250    31.6730    28.1900 hn         0 C3Z       0.329700
      9 H07         66.1660    37.1840    24.9280 ha         0 C3Z       0.154500
     10 H04         70.9790    37.9410    23.8730 ha         0 C3Z       0.139000
     11 H05         70.0710    38.5760    26.1000 ha         0 C3Z       0.136000
     12 H16         72.4870    29.4790    22.4270 ha         0 C3Z       0.137000
     13 H06         67.6740    38.1820    26.6280 ha         0 C3Z       0.139000
     14 H03         69.4910    36.8830    22.1800 ha         0 C3Z       0.154500
     15 H10         70.3430    30.0170    26.1240 ha         0 C3Z       0.136500
     16 H09         70.2610    33.7730    25.6740 hc         0 C3Z       0.074200
     17 H08         70.6320    32.5260    26.9630 hc         0 C3Z       0.074200
     18 H11         71.4550    28.5290    24.4780 ha         0 C3Z       0.137000
     19 C           65.1030    33.1410    25.6100 ca         0 C3Z      -0.143000
     20 C1          65.1050    33.8540    24.4180 ca         0 C3Z       0.138100
     21 C2          66.3170    34.2320    23.7890 ca         0 C3Z      -0.110000
     22 C3          65.9630    35.9030    20.5420 cc         0 C3Z       0.291200
     23 C4          67.7310    36.9690    23.4400 ca         0 C3Z       0.011800
     24 C5          69.0900    37.1780    23.1490 ca         0 C3Z      -0.120500
     25 C6          69.9280    37.7650    24.1040 ca         0 C3Z      -0.122500
     26 C7          69.4170    38.1250    25.3540 ca         0 C3Z      -0.128000
     27 C8          68.0660    37.9070    25.6490 ca         0 C3Z      -0.122500
     28 C9          67.2200    37.3400    24.6980 ca         0 C3Z      -0.120500
     29 C10         68.6440    32.5660    26.3210 cc         0 C3Z      -0.086300
     30 C11         70.1180    32.7520    26.0280 c3         0 C3Z       0.024100
     31 C12         70.7860    30.4410    25.2230 ca         0 C3Z      -0.129000
     32 C13         71.4180    29.6040    24.2990 ca         0 C3Z      -0.125500
     33 C14         67.5400    33.8320    24.3200 ca         0 C3Z      -0.007000
     34 C15         66.3190    35.0920    22.5820 cd         0 C3Z      -0.065300
     35 C16         65.7020    34.8290    21.3940 cc         0 C3Z      -0.285300
     36 N           66.7020    36.7810    21.1690 nd         0 C3Z      -0.495800
     37 N1          66.9190    36.3270    22.4730 na         0 C3Z       0.163300
     38 O           63.9330    34.2390    23.8710 oh         0 C3Z      -0.503100
     39 C17         66.3480    32.7530    26.1600 ca         0 C3Z      -0.039000
     40 C18         67.5620    33.1020    25.5110 ca         0 C3Z      -0.169000
     41 N2          68.1080    32.0480    27.4080 na         0 C3Z       0.064800
     42 N3          66.7200    32.0960    27.3130 nc         0 C3Z      -0.283400
     43 C19         70.7190    31.8160    24.9990 ca         0 C3Z      -0.101300
     44 C20         72.0010    30.1350    23.1500 ca         0 C3Z      -0.124000
     45 C21         71.9580    31.5150    22.9310 ca         0 C3Z      -0.125500
     46 C22         71.3280    32.3490    23.8600 ca         0 C3Z      -0.129000
@<TRIPOS>BOND
     1     1    35 1   
     2     2    38 1   
     3     3    46 1   
     4     4    22 1   
     5     5    33 1   
     6     6    45 1   
     7     7    19 1   
     8     8    41 1   
     9     9    28 1   
    10    10    25 1   
    11    11    26 1   
    12    12    44 1   
    13    13    27 1   
    14    14    24 1   
    15    15    31 1   
    16    16    30 1   
    17    17    30 1   
    18    18    32 1   
    19    19    20 ar  
    20    19    39 ar  
    21    20    21 ar  
    22    20    38 1   
    23    21    33 ar  
    24    21    34 1   
    25    22    35 1   
    26    22    36 2   
    27    23    24 ar  
    28    23    28 ar  
    29    23    37 1   
    30    24    25 ar  
    31    25    26 ar  
    32    26    27 ar  
    33    27    28 ar  
    34    29    30 1   
    35    29    40 2   
    36    29    41 1   
    37    30    43 1   
    38    31    32 ar  
    39    31    43 ar  
    40    32    44 ar  
    41    33    40 ar  
    42    34    35 2   
    43    34    37 1   
    44    36    37 1   
    45    39    40 ar  
    46    39    42 2   
    47    41    42 1   
    48    43    46 ar  
    49    44    45 ar  
    50    45    46 ar  
@<TRIPOS>SUBSTRUCTURE
     1 C3Z         1 TEMP              0 ****  ****    0 ROOT
