/web/media/ligands/6EY8_ligand.pdb
 OpenBabel04242009293D

 29 32  0  0  0  0  0  0  0  0999 V2000
   -0.8020   33.8450   23.5170 C   0  0  0  0  0  0  0  0  0  0  0  0
   -1.9690   33.5610   24.2640 C   0  0  0  0  0  0  0  0  0  0  0  0
   -1.9010   32.8990   25.4630 C   0  0  0  0  0  0  0  0  0  0  0  0
   -3.1810   33.8770   23.7680 O   0  0  0  0  0  0  0  0  0  0  0  0
    0.5400   32.8810   25.2620 C   0  0  0  0  0  0  0  0  0  0  0  0
   -0.6500   32.5790   25.9860 C   0  0  0  0  0  0  0  0  0  0  0  0
    1.6400   32.4000   26.0820 C   0  0  0  0  0  0  0  0  0  0  0  0
    3.1220   32.5580   25.7970 C   0  0  0  0  0  0  0  0  0  0  0  0
    3.7090   31.6340   24.7590 C   0  0  0  0  0  0  0  0  0  0  0  0
    4.2500   32.1790   23.5920 C   0  0  0  0  0  0  0  0  0  0  0  0
    4.8820   31.3490   22.6590 C   0  0  0  0  0  0  0  0  0  0  0  0
    3.8370   30.2640   25.0130 C   0  0  0  0  0  0  0  0  0  0  0  0
   -0.5170   36.4920   20.7720 C   0  0  0  0  0  0  0  0  0  0  0  0
   -0.1690   36.7330   23.2420 C   0  0  0  0  0  0  0  0  0  0  0  0
    2.3000   36.3110   22.9500 C   0  0  0  0  0  0  0  0  0  0  0  0
    3.5690   36.2390   23.4950 C   0  0  0  0  0  0  0  0  0  0  0  0
    0.4680   33.4750   23.9990 C   0  0  0  0  0  0  0  0  0  0  0  0
   -0.8740   34.5540   22.2180 C   0  0  0  0  0  0  0  0  0  0  0  0
   -0.4780   35.8570   22.0900 N   0  0  0  0  0  0  0  0  0  0  0  0
   -1.2220   33.9180   21.2390 O   0  0  0  0  0  0  0  0  0  0  0  0
   -0.2710   31.9880   27.1530 N   0  0  0  0  0  0  0  0  0  0  0  0
    1.1190   31.9600   27.1850 N   0  0  0  0  0  0  0  0  0  0  0  0
    4.9900   29.9750   22.9120 C   0  0  0  0  0  0  0  0  0  0  0  0
    4.4810   29.4380   24.0930 C   0  0  0  0  0  0  0  0  0  0  0  0
    1.2300   36.6780   23.7690 C   0  0  0  0  0  0  0  0  0  0  0  0
    3.7610   36.5410   24.8470 C   0  0  0  0  0  0  0  0  0  0  0  0
    2.6920   36.8830   25.6740 C   0  0  0  0  0  0  0  0  0  0  0  0
    1.4190   36.9690   25.1200 C   0  0  0  0  0  0  0  0  0  0  0  0
    5.3630   36.4520   25.5010 Cl  0  0  0  0  0  0  0  0  0  0  0  0
  1 17  2  0  0  0  0
  1  2  1  0  0  0  0
  2  3  2  0  0  0  0
  3  6  1  0  0  0  0
  4  2  1  0  0  0  0
  5  6  2  0  0  0  0
  5  7  1  0  0  0  0
  6 21  1  0  0  0  0
  7 22  2  0  0  0  0
  8  7  1  0  0  0  0
  9 12  1  0  0  0  0
  9  8  1  0  0  0  0
 10  9  2  0  0  0  0
 11 23  2  0  0  0  0
 11 10  1  0  0  0  0
 13 19  1  0  0  0  0
 14 25  1  0  0  0  0
 15 16  2  0  0  0  0
 15 25  1  0  0  0  0
 16 26  1  0  0  0  0
 17  5  1  0  0  0  0
 18  1  1  0  0  0  0
 19 18  1  0  0  0  0
 19 14  1  0  0  0  0
 20 18  2  0  0  0  0
 21 22  1  0  0  0  0
 23 24  1  0  0  0  0
 24 12  2  0  0  0  0
 25 28  2  0  0  0  0
 26 29  1  0  0  0  0
 26 27  2  0  0  0  0
 28 27  1  0  0  0  0
M  END
>  <REMARK>
 800 SITE_DESCRIPTION: binding site for residue C4T A 302                 

>  <HET>
 C4T  A 302      29                                                       

>  <HETNAM>
     C4T ~{N}-[(4-CHLOROPHENYL)METHYL]-~{N}-METHYL-6-OXIDANYL-3-          
   2 C4T  (PHENYLMETHYL)-1~{H}-INDAZOLE-5-CARBOXAMIDE                     

>  <FORMUL>
   3  C4T    C23 H20 CL N3 O2                                             

>  <SITE>
   1 AC1  2 TYR A  61  C4T A 302                                          

$$$$
