REMARK  Name = /web/media/ligands/6EY8_ligand.pdb
REMARK  5 active torsions:
REMARK  status: ('A' for Active; 'I' for Inactive)
REMARK    1  A    between atoms: C_1  and  C_18
REMARK    2  A    between atoms: C_7  and  C_8
REMARK    3  A    between atoms: C_8  and  C_9
REMARK    4  A    between atoms: C_14  and  N_19
REMARK    5  A    between atoms: C_14  and  C_25
REMARK                            x       y       z     vdW  Elec       q    Type
REMARK                         _______ _______ _______ _____ _____    ______ ____
ROOT
ATOM      1  C   UNL     1      -0.802  33.845  23.517  0.00  0.00    +0.093 A 
ATOM      2  C   UNL     1      -1.969  33.561  24.264  0.00  0.00    +0.202 A 
ATOM      3  O   UNL     1      -3.181  33.877  23.768  0.00  0.00    -0.286 OA
ATOM      4  C   UNL     1      -1.901  32.899  25.463  0.00  0.00    +0.063 A 
ATOM      5  C   UNL     1      -0.650  32.579  25.986  0.00  0.00    +0.107 A 
ATOM      6  N   UNL     1      -0.271  31.988  27.153  0.00  0.00    -0.148 NA
ATOM      7  N   UNL     1       1.119  31.960  27.185  0.00  0.00    -0.152 NA
ATOM      8  C   UNL     1       1.640  32.400  26.082  0.00  0.00    +0.086 A 
ATOM      9  C   UNL     1       0.540  32.881  25.262  0.00  0.00    +0.035 A 
ATOM     10  C   UNL     1       0.468  33.475  23.999  0.00  0.00    +0.011 A 
ENDROOT
BRANCH   1  11
ATOM     11  C   UNL     1      -0.874  34.554  22.218  0.00  0.00    +0.252 C 
ATOM     12  O   UNL     1      -1.222  33.918  21.239  0.00  0.00    -0.270 OA
ATOM     13  N   UNL     1      -0.478  35.857  22.090  0.00  0.00    -0.270 N 
ATOM     14  C   UNL     1      -0.517  36.492  20.772  0.00  0.00    +0.116 C 
BRANCH  13  15
ATOM     15  C   UNL     1      -0.169  36.733  23.242  0.00  0.00    +0.120 C 
BRANCH  15  16
ATOM     16  C   UNL     1       1.230  36.678  23.769  0.00  0.00    -0.002 A 
ATOM     17  C   UNL     1       1.419  36.969  25.120  0.00  0.00    -0.002 A 
ATOM     18  C   UNL     1       2.692  36.883  25.674  0.00  0.00    +0.011 A 
ATOM     19  C   UNL     1       3.761  36.541  24.847  0.00  0.00    +0.058 A 
ATOM     20 CL   UNL     1       5.363  36.452  25.501  0.00  0.00    -0.082 Cl
ATOM     21  C   UNL     1       3.569  36.239  23.495  0.00  0.00    +0.011 A 
ATOM     22  C   UNL     1       2.300  36.311  22.950  0.00  0.00    -0.002 A 
ENDBRANCH  15  16
ENDBRANCH  13  15
ENDBRANCH   1  11
BRANCH   8  23
ATOM     23  C   UNL     1       3.122  32.558  25.797  0.00  0.00    +0.074 C 
BRANCH  23  24
ATOM     24  C   UNL     1       3.709  31.634  24.759  0.00  0.00    -0.016 A 
ATOM     25  C   UNL     1       4.250  32.179  23.592  0.00  0.00    -0.004 A 
ATOM     26  C   UNL     1       4.882  31.349  22.659  0.00  0.00    -0.000 A 
ATOM     27  C   UNL     1       4.990  29.975  22.912  0.00  0.00    -0.000 A 
ATOM     28  C   UNL     1       4.481  29.438  24.093  0.00  0.00    -0.000 A 
ATOM     29  C   UNL     1       3.837  30.264  25.013  0.00  0.00    -0.004 A 
ENDBRANCH  23  24
ENDBRANCH   8  23
TORSDOF 5
