@<TRIPOS>MOLECULE
/web/media/ligands/6EY8_ligand.pdb
 29 32 0 0 0
SMALL
GASTEIGER

@<TRIPOS>ATOM
      1 C          -0.8020   33.8450   23.5170 C.ar    1  UNL1        0.0926
      2 C          -1.9690   33.5610   24.2640 C.ar    1  UNL1        0.2016
      3 C          -1.9010   32.8990   25.4630 C.ar    1  UNL1        0.0631
      4 O          -3.1810   33.8770   23.7680 O.3     1  UNL1       -0.2864
      5 C           0.5400   32.8810   25.2620 C.ar    1  UNL1        0.0354
      6 C          -0.6500   32.5790   25.9860 C.ar    1  UNL1        0.1072
      7 C           1.6400   32.4000   26.0820 C.ar    1  UNL1        0.0864
      8 C           3.1220   32.5580   25.7970 C.3     1  UNL1        0.0739
      9 C           3.7090   31.6340   24.7590 C.ar    1  UNL1       -0.0161
     10 C           4.2500   32.1790   23.5920 C.ar    1  UNL1       -0.0039
     11 C           4.8820   31.3490   22.6590 C.ar    1  UNL1       -0.0003
     12 C           3.8370   30.2640   25.0130 C.ar    1  UNL1       -0.0039
     13 C          -0.5170   36.4920   20.7720 C.3     1  UNL1        0.1155
     14 C          -0.1690   36.7330   23.2420 C.3     1  UNL1        0.1205
     15 C           2.3000   36.3110   22.9500 C.ar    1  UNL1       -0.0017
     16 C           3.5690   36.2390   23.4950 C.ar    1  UNL1        0.0111
     17 C           0.4680   33.4750   23.9990 C.ar    1  UNL1        0.0105
     18 C          -0.8740   34.5540   22.2180 C.2     1  UNL1        0.2524
     19 N          -0.4780   35.8570   22.0900 N.am    1  UNL1       -0.2701
     20 O          -1.2220   33.9180   21.2390 O.2     1  UNL1       -0.2698
     21 N          -0.2710   31.9880   27.1530 N.ar    1  UNL1       -0.1482
     22 N           1.1190   31.9600   27.1850 N.ar    1  UNL1       -0.1520
     23 C           4.9900   29.9750   22.9120 C.ar    1  UNL1       -0.0000
     24 C           4.4810   29.4380   24.0930 C.ar    1  UNL1       -0.0003
     25 C           1.2300   36.6780   23.7690 C.ar    1  UNL1       -0.0023
     26 C           3.7610   36.5410   24.8470 C.ar    1  UNL1        0.0577
     27 C           2.6920   36.8830   25.6740 C.ar    1  UNL1        0.0111
     28 C           1.4190   36.9690   25.1200 C.ar    1  UNL1       -0.0017
     29 CL          5.3630   36.4520   25.5010 Cl      1  UNL1       -0.0822
@<TRIPOS>BOND
     1     1    17   ar
     2     1     2   ar
     3     2     3   ar
     4     3     6   ar
     5     4     2    1
     6     5     6   ar
     7     5     7   ar
     8     6    21   ar
     9     7    22   ar
    10     8     7    1
    11     9    12   ar
    12     9     8    1
    13    10     9   ar
    14    11    23   ar
    15    11    10   ar
    16    13    19    1
    17    14    25    1
    18    15    16   ar
    19    15    25   ar
    20    16    26   ar
    21    17     5   ar
    22    18     1    1
    23    19    18   am
    24    19    14    1
    25    20    18    2
    26    21    22   ar
    27    23    24   ar
    28    24    12   ar
    29    25    28   ar
    30    26    29    1
    31    26    27   ar
    32    28    27   ar
