@<TRIPOS>MOLECULE
70O
   69    72     1     0     0
SMALL
bcc


@<TRIPOS>ATOM
      1 H05         -0.1990     7.8600    28.7730 h1         0 70O       0.050033
      2 H07          1.0950    11.5350    26.0300 ha         0 70O       0.144000
      3 H06         -0.5700     9.4330    29.5190 h1         0 70O       0.050033
      4 H12          3.5540     2.8000    20.7310 h1         0 70O       0.032033
      5 H11          4.8920     3.8910    20.3000 h1         0 70O       0.032033
      6 H10          3.0940    11.7780    24.3890 hc         0 70O       0.067200
      7 H09          3.5590    12.6310    22.8890 hc         0 70O       0.067200
      8 H08         -2.9720    12.3730    23.2250 ha         0 70O       0.165000
      9 H20          5.6370    13.3900    27.0390 hc         0 70O       0.036589
     10 H15          5.4890    12.9950    23.4150 hc         0 70O       0.036589
     11 H18          4.1720    16.0650    25.5360 hc         0 70O       0.036589
     12 H17          5.9100    15.8200    25.2420 hc         0 70O       0.036589
     13 H28          3.1310    14.7980    23.9560 hc         0 70O       0.043700
     14 H16          6.0110    14.6910    23.5610 hc         0 70O       0.036589
     15 H14          6.7410    13.4420    24.5970 hc         0 70O       0.036589
     16 H13          3.2100     4.3760    19.9790 h1         0 70O       0.032033
     17 H21          3.9530    12.8530    26.8280 hc         0 70O       0.036589
     18 H24          3.2340     7.3800    25.9120 ha         0 70O       0.138000
     19 H27          2.6300    13.8990    25.4730 hc         0 70O       0.043700
     20 H26          1.5770    13.5170    21.4640 hn         0 70O       0.322700
     21 H25         -3.6990    12.0160    26.1700 ho         0 70O       0.449000
     22 H36          2.8860     4.7080    24.6560 hc         0 70O       0.050450
     23 H31          5.1600     6.0150    21.7750 h1         0 70O       0.030700
     24 H30          3.7660     7.8130    22.8900 hc         0 70O       0.050450
     25 H29          4.3470     6.5250    23.9520 hc         0 70O       0.050450
     26 H32          3.5320     6.3070    21.0210 h1         0 70O       0.030700
     27 H35          1.1670     4.6640    24.2120 hc         0 70O       0.050450
     28 H34          1.7100     4.1670    21.8970 h1         0 70O       0.030700
     29 H33          2.6130     3.0260    22.9600 h1         0 70O       0.030700
     30 H19          5.1970    15.3490    26.8030 hc         0 70O       0.036589
     31 H23         -0.2600     7.2530    23.4050 ha         0 70O       0.138000
     32 H22          5.2630    12.0510    25.9270 hc         0 70O       0.036589
     33 H01          1.9830     8.7000    27.6010 ha         0 70O       0.143500
     34 H02         -1.5310     8.5200    25.0950 ha         0 70O       0.143500
     35 H03          1.6520     6.6240    22.5790 hc         0 70O       0.053700
     36 H04         -1.8770     8.4520    28.8140 h1         0 70O       0.050033
     37 C            1.4890     8.3780    26.6840 ca         0 70O      -0.137500
     38 C1           0.1340     8.7010    26.4590 ca         0 70O       0.037600
     39 C2          -0.4820     8.2820    25.2730 ca         0 70O      -0.137500
     40 C3           2.2320     6.4010    23.4750 c3         0 70O      -0.021400
     41 C4          -0.8320     8.7460    28.7150 c3         0 70O       0.081300
     42 C5          -1.2080    10.6330    27.1890 c          0 70O       0.683700
     43 C6          -1.0620    11.3410    25.8850 ca         0 70O      -0.208600
     44 C7           0.2120    11.6930    25.4110 ca         0 70O       0.007000
     45 C8          -2.0820    12.1730    23.8220 ca         0 70O      -0.147000
     46 C9          -2.2020    11.5970    25.0750 ca         0 70O       0.163100
     47 C10          1.4780    12.7010    23.3410 cc         0 70O      -0.079300
     48 C11          2.9260    12.6630    23.7760 c3         0 70O      -0.024200
     49 C12          4.7330    14.0110    25.1720 c3         0 70O      -0.055000
     50 C13          3.8660     3.8420    20.6660 c3         0 70O       0.158100
     51 C14          5.8230    13.7670    24.1080 c3         0 70O      -0.088767
     52 C15          5.0240    15.4130    25.7290 c3         0 70O      -0.088767
     53 C16          4.9090    13.0020    26.3260 c3         0 70O      -0.088767
     54 C17          0.2300     7.5690    24.3260 ca         0 70O      -0.116000
     55 C18          1.5640     7.2530    24.5400 ca         0 70O      -0.077300
     56 C19          2.1930     7.6470    25.7320 ca         0 70O      -0.116000
     57 N           -0.6310     9.4090    27.4180 n          0 70O      -0.386000
     58 O           -1.8630    11.1510    28.0730 o          0 70O      -0.619100
     59 O1          -3.4450    11.3380    25.5400 oh         0 70O      -0.514100
     60 C20         -0.8160    12.4980    23.3250 ca         0 70O      -0.033000
     61 C21          0.3340    12.2520    24.1280 ca         0 70O      -0.172000
     62 N1           1.0030    13.1440    22.2060 na         0 70O       0.057800
     63 N2          -0.3890    13.0420    22.1370 nc         0 70O      -0.285400
     64 C22          3.2810    13.9320    24.6000 c3         0 70O      -0.073400
     65 C23          3.6850     6.7500    23.1160 c3         0 70O      -0.072400
     66 C24          4.0790     5.9200    21.8810 c3         0 70O       0.168800
     67 N3           3.7910     4.4620    22.0000 n3         0 70O      -0.733600
     68 C25          2.5100     4.0600    22.6300 c3         0 70O       0.168800
     69 C26          2.1690     4.9110    23.8610 c3         0 70O      -0.072400
@<TRIPOS>BOND
     1     1    41 1   
     2     2    44 1   
     3     3    41 1   
     4     4    50 1   
     5     5    50 1   
     6     6    48 1   
     7     7    48 1   
     8     8    45 1   
     9     9    53 1   
    10    10    51 1   
    11    11    52 1   
    12    12    52 1   
    13    13    64 1   
    14    14    51 1   
    15    15    51 1   
    16    16    50 1   
    17    17    53 1   
    18    18    56 1   
    19    19    64 1   
    20    20    62 1   
    21    21    59 1   
    22    22    69 1   
    23    23    66 1   
    24    24    65 1   
    25    25    65 1   
    26    26    66 1   
    27    27    69 1   
    28    28    68 1   
    29    29    68 1   
    30    30    52 1   
    31    31    54 1   
    32    32    53 1   
    33    33    37 1   
    34    34    39 1   
    35    35    40 1   
    36    36    41 1   
    37    37    38 ar  
    38    37    56 ar  
    39    38    39 ar  
    40    38    57 1   
    41    39    54 ar  
    42    40    55 1   
    43    40    65 1   
    44    40    69 1   
    45    41    57 1   
    46    42    43 1   
    47    42    57 1   
    48    42    58 2   
    49    43    44 ar  
    50    43    46 ar  
    51    44    61 ar  
    52    45    46 ar  
    53    45    60 ar  
    54    46    59 1   
    55    47    48 1   
    56    47    61 2   
    57    47    62 1   
    58    48    64 1   
    59    49    51 1   
    60    49    52 1   
    61    49    53 1   
    62    49    64 1   
    63    50    67 1   
    64    54    55 ar  
    65    55    56 ar  
    66    60    61 ar  
    67    60    63 2   
    68    62    63 1   
    69    65    66 1   
    70    66    67 1   
    71    67    68 1   
    72    68    69 1   
@<TRIPOS>SUBSTRUCTURE
     1 70O         1 TEMP              0 ****  ****    0 ROOT
