@<TRIPOS>MOLECULE
XT0
   47    50     1     0     0
SMALL
bcc


@<TRIPOS>ATOM
      1 CAC         26.6470     1.9370    37.1990 cg       302 XT0       0.242800
      2 CAD         24.0520     0.4660    35.1120 ca       302 XT0      -0.160000
      3 CAE         23.8180    -0.7070    35.8010 ca       302 XT0      -0.075000
      4 CAF         25.0100     1.3390    35.6030 ca       302 XT0      -0.066000
      5 CAG         24.5080    -0.9640    36.9570 ca       302 XT0      -0.190000
      6 CAH         24.8210    -2.7280    41.0380 ca       302 XT0      -0.126000
      7 CAI         25.0220    -1.5520    40.3210 ca       302 XT0      -0.110000
      8 CAJ         26.4690    -3.8930    39.7110 ca       302 XT0      -0.139000
      9 CAK         23.4250    -6.3880    40.3400 cc       302 XT0      -0.224600
     10 CAL         19.8450    -9.3380    40.3210 c3       302 XT0      -0.079900
     11 CAM         21.3350    -9.6030    40.4380 c3       302 XT0      -0.079900
     12 CAN         19.8770    -7.8010    40.2240 c3       302 XT0      -0.073400
     13 CAO         21.8990    -8.8250    39.3170 c3       302 XT0      -0.073400
     14 CAP         25.1540    -5.0230    41.5920 c3       302 XT0       0.100600
     15 CAT         26.6790    -2.6900    38.9700 ca       302 XT0       0.134100
     16 CAU         25.4980    -3.9110    40.7650 ca       302 XT0      -0.090300
     17 CAV         25.7490     1.0500    36.7500 ca       302 XT0      -0.039000
     18 CAW         22.1150    -6.5470    40.4550 cd       302 XT0       0.274600
     19 CAX         25.9710    -1.5070    39.2980 ca       302 XT0       0.008100
     20 CAY         25.4860    -0.1050    37.4530 ca       302 XT0       0.148100
     21 CAZ         21.2440    -7.4410    39.5560 c3       302 XT0      -0.082000
     22 NAA         27.4480     2.7400    37.5900 n1       302 XT0      -0.357800
     23 NAQ         21.6200    -5.8130    41.4690 nd       302 XT0      -0.354000
     24 NAR         22.6530    -5.2010    42.0030 nc       302 XT0      -0.169800
     25 OAB         27.6120    -2.5180    37.9430 oh       302 XT0      -0.488100
     26 OAS         26.1980    -0.3310    38.6080 os       302 XT0      -0.250200
     27 NBA         23.8160    -5.5280    41.2740 na       302 XT0       0.041400
     28 H01         23.4970     0.7000    34.2040 ha       302 XT0       0.145000
     29 H02         23.0880    -1.4250    35.4280 ha       302 XT0       0.144000
     30 H03         25.1910     2.2770    35.0780 ha       302 XT0       0.150000
     31 H04         24.2830    -1.8760    37.5100 ha       302 XT0       0.158000
     32 H05         24.0980    -2.7210    41.8530 ha       302 XT0       0.160000
     33 H06         24.4370    -0.6640    40.5590 ha       302 XT0       0.155000
     34 H07         27.0420    -4.7900    39.4770 ha       302 XT0       0.155000
     35 H08         24.0680    -6.8760    39.6080 h4       302 XT0       0.190000
     36 H09         19.2340    -9.7430    41.1270 hc       302 XT0       0.041450
     37 H10         19.4170    -9.7950    39.4290 hc       302 XT0       0.041450
     38 H11         21.5880   -10.6620    40.3960 hc       302 XT0       0.041450
     39 H12         21.7220    -9.2510    41.3940 hc       302 XT0       0.041450
     40 H13         19.7770    -7.3370    41.2050 hc       302 XT0       0.047450
     41 H14         19.0490    -7.4420    39.6120 hc       302 XT0       0.047450
     42 H15         21.7030    -9.2500    38.3330 hc       302 XT0       0.047450
     43 H16         22.9860    -8.7690    39.3750 hc       302 XT0       0.047450
     44 H17         25.8750    -5.8210    41.4130 h1       302 XT0       0.078200
     45 H18         25.1780    -4.7110    42.6360 h1       302 XT0       0.078200
     46 H19         21.1220    -6.8620    38.6410 hc       302 XT0       0.064700
     47 H20         27.7590    -1.5810    37.7970 ho       302 XT0       0.441000
@<TRIPOS>BOND
     1     1    17 1   
     2     1    22 3   
     3     2     3 ar  
     4     2     4 ar  
     5     2    28 1   
     6     3     5 ar  
     7     3    29 1   
     8     4    17 ar  
     9     4    30 1   
    10     5    20 ar  
    11     5    31 1   
    12     6     7 ar  
    13     6    16 ar  
    14     6    32 1   
    15     7    19 ar  
    16     7    33 1   
    17     8    15 ar  
    18     8    16 ar  
    19     8    34 1   
    20     9    18 2   
    21     9    27 1   
    22     9    35 1   
    23    10    11 1   
    24    10    12 1   
    25    10    36 1   
    26    10    37 1   
    27    11    13 1   
    28    11    38 1   
    29    11    39 1   
    30    12    21 1   
    31    12    40 1   
    32    12    41 1   
    33    13    21 1   
    34    13    42 1   
    35    13    43 1   
    36    14    16 1   
    37    14    27 1   
    38    14    44 1   
    39    14    45 1   
    40    15    19 ar  
    41    15    25 1   
    42    17    20 ar  
    43    18    21 1   
    44    18    23 1   
    45    19    26 1   
    46    20    26 1   
    47    21    46 1   
    48    23    24 2   
    49    24    27 1   
    50    25    47 1   
@<TRIPOS>SUBSTRUCTURE
     1 XT0         1 TEMP              0 ****  ****    0 ROOT
