@<TRIPOS>MOLECULE
XT0
   47    50     1     0     0
SMALL
bcc


@<TRIPOS>ATOM
      1 H05         27.0420    -4.7900    39.4770 ha         0 XT0       0.155000
      2 H15         19.3430    -9.8480    39.4990 hc         0 XT0       0.041450
      3 H19         22.9880    -8.8060    39.2870 hc         0 XT0       0.047200
      4 H20         21.6100    -9.2440    38.3530 hc         0 XT0       0.047200
      5 H08         24.0980    -2.7210    41.8530 ha         0 XT0       0.160000
      6 H06         27.7590    -1.5810    37.7970 ho         0 XT0       0.441000
      7 H04         24.2830    -1.8760    37.5100 ha         0 XT0       0.158000
      8 H03         23.0880    -1.4250    35.4280 ha         0 XT0       0.144000
      9 H10         25.8810    -5.8200    41.4370 h1         0 XT0       0.078200
     10 H02         23.4970     0.7000    34.2040 ha         0 XT0       0.145000
     11 H07         24.4370    -0.6640    40.5590 ha         0 XT0       0.155000
     12 H01         25.1910     2.2770    35.0780 ha         0 XT0       0.150000
     13 H18         21.7220    -9.2510    41.3940 hc         0 XT0       0.041450
     14 H09         25.1600    -4.6940    42.6310 h1         0 XT0       0.078200
     15 H13         19.0360    -7.4200    39.6440 hc         0 XT0       0.047200
     16 H12         21.1220    -6.8620    38.6410 hc         0 XT0       0.064700
     17 H11         24.0680    -6.8760    39.6080 h4         0 XT0       0.190000
     18 H14         19.8110    -7.3560    41.2170 hc         0 XT0       0.047200
     19 H17         21.5880   -10.6620    40.3960 hc         0 XT0       0.041450
     20 H16         19.2980    -9.6810    41.1990 hc         0 XT0       0.041450
     21 N           27.4480     2.7400    37.5900 n1         0 XT0      -0.357800
     22 C           26.6470     1.9370    37.1990 cg         0 XT0       0.242800
     23 C1          25.7490     1.0500    36.7500 ca         0 XT0      -0.039000
     24 C2          25.0100     1.3390    35.6030 ca         0 XT0      -0.066000
     25 C3          24.0520     0.4660    35.1120 ca         0 XT0      -0.160000
     26 C4          23.8180    -0.7070    35.8010 ca         0 XT0      -0.075000
     27 C5          24.5080    -0.9640    36.9570 ca         0 XT0      -0.190000
     28 C6          25.4860    -0.1050    37.4530 ca         0 XT0       0.148100
     29 O           26.1980    -0.3310    38.6080 os         0 XT0      -0.250200
     30 C7          25.9710    -1.5070    39.2980 ca         0 XT0       0.008100
     31 C8          26.6790    -2.6900    38.9700 ca         0 XT0       0.134100
     32 C9          26.4690    -3.8930    39.7110 ca         0 XT0      -0.139000
     33 O1          27.6120    -2.5180    37.9430 oh         0 XT0      -0.488100
     34 C10         25.0220    -1.5520    40.3210 ca         0 XT0      -0.110000
     35 C11         24.8210    -2.7280    41.0380 ca         0 XT0      -0.126000
     36 C12         25.4980    -3.9110    40.7650 ca         0 XT0      -0.090300
     37 C13         25.1540    -5.0230    41.5920 c3         0 XT0       0.100600
     38 N1          23.8160    -5.5280    41.2740 na         0 XT0       0.041400
     39 C14         23.4250    -6.3880    40.3400 cc         0 XT0      -0.224600
     40 N2          22.6530    -5.2010    42.0030 nc         0 XT0      -0.169800
     41 N3          21.6200    -5.8130    41.4690 nd         0 XT0      -0.354000
     42 C15         22.1150    -6.5470    40.4550 cd         0 XT0       0.274600
     43 C16         21.2440    -7.4410    39.5560 c3         0 XT0      -0.082000
     44 C17         19.8770    -7.8010    40.2240 c3         0 XT0      -0.073400
     45 C18         19.8450    -9.3380    40.3210 c3         0 XT0      -0.079900
     46 C19         21.3350    -9.6030    40.4380 c3         0 XT0      -0.079900
     47 C20         21.8990    -8.8250    39.3170 c3         0 XT0      -0.073400
@<TRIPOS>BOND
     1     1    32 1   
     2     2    45 1   
     3     3    47 1   
     4     4    47 1   
     5     5    35 1   
     6     6    33 1   
     7     7    27 1   
     8     8    26 1   
     9     9    37 1   
    10    10    25 1   
    11    11    34 1   
    12    12    24 1   
    13    13    46 1   
    14    14    37 1   
    15    15    44 1   
    16    16    43 1   
    17    17    39 1   
    18    18    44 1   
    19    19    46 1   
    20    20    45 1   
    21    21    22 3   
    22    22    23 1   
    23    23    24 ar  
    24    23    28 ar  
    25    24    25 ar  
    26    25    26 ar  
    27    26    27 ar  
    28    27    28 ar  
    29    28    29 1   
    30    29    30 1   
    31    30    31 ar  
    32    30    34 ar  
    33    31    32 ar  
    34    31    33 1   
    35    32    36 ar  
    36    34    35 ar  
    37    35    36 ar  
    38    36    37 1   
    39    37    38 1   
    40    38    39 1   
    41    38    40 1   
    42    39    42 2   
    43    40    41 2   
    44    41    42 1   
    45    42    43 1   
    46    43    44 1   
    47    43    47 1   
    48    44    45 1   
    49    45    46 1   
    50    46    47 1   
@<TRIPOS>SUBSTRUCTURE
     1 XT0         1 TEMP              0 ****  ****    0 ROOT
