/web/media/ligands/5LO5_ligand.pdb
 OpenBabel04242009293D

 30 33  0  0  0  0  0  0  0  0999 V2000
    0.5100   33.7950   25.3510 C   0  0  0  0  0  0  0  0  0  0  0  0
   -0.6870   33.4170   26.0550 C   0  0  0  0  0  0  0  0  0  0  0  0
    1.6270   33.4200   26.2310 C   0  0  0  0  0  0  0  0  0  0  0  0
    1.0540   32.8550   27.3720 C   0  0  0  0  0  0  0  0  0  0  0  0
    3.1190   33.6010   25.9780 C   0  0  0  0  0  0  0  0  0  0  0  0
   -0.8540   34.6200   23.4870 C   0  0  0  0  0  0  0  0  0  0  0  0
   -2.0390   34.2480   24.2000 C   0  0  0  0  0  0  0  0  0  0  0  0
    3.5660   32.9680   24.6450 C   0  0  0  0  0  0  0  0  0  0  0  0
   -0.9630   35.2150   22.1870 C   0  0  0  0  0  0  0  0  0  0  0  0
    3.5350   31.4380   24.7380 C   0  0  0  0  0  0  0  0  0  0  0  0
    4.2280   30.8200   23.5120 C   0  0  0  0  0  0  0  0  0  0  0  0
    6.4120   30.3520   24.5190 C   0  0  0  0  0  0  0  0  0  0  0  0
    7.7130   31.3930   22.1280 C   0  0  0  0  0  0  0  0  0  0  0  0
    7.8740   30.8140   24.5420 C   0  0  0  0  0  0  0  0  0  0  0  0
   10.6490   31.1530   24.2650 C   0  0  0  0  0  0  0  0  0  0  0  0
   11.9530   30.7140   21.7920 C   0  0  0  0  0  0  0  0  0  0  0  0
    0.4180   34.3960   24.0660 C   0  0  0  0  0  0  0  0  0  0  0  0
   -0.3110   32.8600   27.2560 N   0  0  0  0  0  0  0  0  0  0  0  0
   -1.9520   33.6540   25.4670 C   0  0  0  0  0  0  0  0  0  0  0  0
   -3.2550   34.4690   23.6440 O   0  0  0  0  0  0  0  0  0  0  0  0
   -1.0640   35.6660   21.1500 N   0  0  0  0  0  0  0  0  0  0  0  0
    5.6700   31.1410   23.5010 N   0  0  0  0  0  0  0  0  0  0  0  0
    6.2370   30.9450   22.1400 C   0  0  0  0  0  0  0  0  0  0  0  0
    8.4620   30.6430   23.1780 N   0  0  0  0  0  0  0  0  0  0  0  0
    9.8800   30.7960   23.1100 C   0  0  0  0  0  0  0  0  0  0  0  0
   10.5600   30.5800   21.8710 C   0  0  0  0  0  0  0  0  0  0  0  0
   12.0390   31.2850   24.1840 C   0  0  0  0  0  0  0  0  0  0  0  0
   12.7040   31.0650   22.9480 C   0  0  0  0  0  0  0  0  0  0  0  0
   14.1280   31.1880   22.8760 C   0  0  0  0  0  0  0  0  0  0  0  0
   15.2590   31.2660   22.8340 N   0  0  0  0  0  0  0  0  0  0  0  0
  1  2  2  0  0  0  0
  1  3  1  0  0  0  0
  2 18  1  0  0  0  0
  3  4  2  0  0  0  0
  5  3  1  0  0  0  0
  6 17  2  0  0  0  0
  6  7  1  0  0  0  0
  7 19  2  0  0  0  0
  8 10  1  0  0  0  0
  8  5  1  0  0  0  0
  9  6  1  0  0  0  0
 11 10  1  0  0  0  0
 12 14  1  0  0  0  0
 13 23  1  0  0  0  0
 13 24  1  0  0  0  0
 16 26  2  0  0  0  0
 16 28  1  0  0  0  0
 17  1  1  0  0  0  0
 18  4  1  0  0  0  0
 19  2  1  0  0  0  0
 20  7  1  0  0  0  0
 21  9  3  0  0  0  0
 22 11  1  0  0  0  0
 22 12  1  0  0  0  0
 23 22  1  0  0  0  0
 24 14  1  0  0  0  0
 25 24  1  0  0  0  0
 25 15  2  0  0  0  0
 26 25  1  0  0  0  0
 27 15  1  0  0  0  0
 28 27  2  0  0  0  0
 29 28  1  0  0  0  0
 30 29  3  0  0  0  0
M  END
>  <REMARK>
 800 SITE_DESCRIPTION: binding site for residue 70M A 301                 

>  <HET>
 70M  A 301      30                                                       

>  <HETNAM>
     70M 3-[4-[4-(4-CYANOPHENYL)PIPERAZIN-1-YL]BUTYL]-6-                  
   2 70M  OXIDANYL-1~{H}-INDOLE-5-CARBONITRILE                            

>  <FORMUL>
   2  70M    C24 H25 N5 O                                                 

$$$$
