REMARK  Name = /web/media/ligands/5LO5_ligand.pdb
REMARK  8 active torsions:
REMARK  status: ('A' for Active; 'I' for Inactive)
REMARK    1  A    between atoms: C_3  and  C_5
REMARK    2  A    between atoms: C_5  and  C_8
REMARK    3  A    between atoms: C_6  and  C_9
REMARK    4  A    between atoms: C_8  and  C_10
REMARK    5  A    between atoms: C_10  and  C_11
REMARK    6  A    between atoms: C_11  and  N_22
REMARK    7  A    between atoms: N_24  and  C_25
REMARK    8  A    between atoms: C_28  and  C_29
REMARK                            x       y       z     vdW  Elec       q    Type
REMARK                         _______ _______ _______ _____ _____    ______ ____
ROOT
ATOM      1  C   UNL     1       3.535  31.438  24.738  0.00  0.00    +0.018 C 
ENDROOT
BRANCH   1   2
ATOM      2  C   UNL     1       3.566  32.968  24.645  0.00  0.00    +0.006 C 
BRANCH   2   3
ATOM      3  C   UNL     1       3.119  33.601  25.978  0.00  0.00    +0.028 C 
BRANCH   3  10
ATOM      4  C   UNL     1       0.510  33.795  25.351  0.00  0.00    +0.016 A 
ATOM      5  C   UNL     1       0.418  34.396  24.066  0.00  0.00    +0.015 A 
ATOM      6  C   UNL     1      -0.854  34.620  23.487  0.00  0.00    +0.107 A 
ATOM      7  C   UNL     1      -2.039  34.248  24.200  0.00  0.00    +0.207 A 
ATOM      8  O   UNL     1      -3.255  34.469  23.644  0.00  0.00    -0.286 OA
ATOM      9  C   UNL     1      -1.952  33.654  25.467  0.00  0.00    +0.062 A 
ATOM     10  C   UNL     1       1.627  33.420  26.231  0.00  0.00    -0.002 A 
ATOM     11  C   UNL     1       1.054  32.855  27.372  0.00  0.00    +0.095 A 
ATOM     12  N   UNL     1      -0.311  32.860  27.256  0.00  0.00    -0.244 NA
ATOM     13  C   UNL     1      -0.687  33.417  26.055  0.00  0.00    +0.084 A 
BRANCH   6  14
ATOM     14  C   UNL     1      -0.963  35.215  22.187  0.00  0.00    +0.104 C 
ATOM     15  N   UNL     1      -1.064  35.666  21.150  0.00  0.00    -0.191 NA
ENDBRANCH   6  14
ENDBRANCH   3  10
ENDBRANCH   2   3
ENDBRANCH   1   2
BRANCH   1  16
ATOM     16  C   UNL     1       4.228  30.820  23.512  0.00  0.00    +0.072 C 
BRANCH  16  17
ATOM     17  N   UNL     1       5.670  31.141  23.501  0.00  0.00    -0.270 NA
ATOM     18  C   UNL     1       6.237  30.945  22.140  0.00  0.00    +0.094 C 
ATOM     19  C   UNL     1       7.713  31.393  22.128  0.00  0.00    +0.108 C 
ATOM     20  N   UNL     1       8.462  30.643  23.178  0.00  0.00    -0.305 N 
ATOM     21  C   UNL     1       7.874  30.814  24.542  0.00  0.00    +0.108 C 
ATOM     22  C   UNL     1       6.412  30.352  24.519  0.00  0.00    +0.094 C 
BRANCH  20  23
ATOM     23  C   UNL     1       9.880  30.796  23.110  0.00  0.00    +0.048 A 
ATOM     24  C   UNL     1      10.560  30.580  21.871  0.00  0.00    +0.015 A 
ATOM     25  C   UNL     1      11.953  30.714  21.792  0.00  0.00    +0.012 A 
ATOM     26  C   UNL     1      12.704  31.065  22.948  0.00  0.00    +0.069 A 
ATOM     27  C   UNL     1      12.039  31.285  24.184  0.00  0.00    +0.012 A 
ATOM     28  C   UNL     1      10.649  31.153  24.265  0.00  0.00    +0.015 A 
BRANCH  26  29
ATOM     29  C   UNL     1      14.128  31.188  22.876  0.00  0.00    +0.100 C 
ATOM     30  N   UNL     1      15.259  31.266  22.834  0.00  0.00    -0.191 NA
ENDBRANCH  26  29
ENDBRANCH  20  23
ENDBRANCH  16  17
ENDBRANCH   1  16
TORSDOF 8
