REMARK  Name = /web/media/ligands/5UGT_ligand.pdb
REMARK  5 active torsions:
REMARK  status: ('A' for Active; 'I' for Inactive)
REMARK    1  A    between atoms: C_7  and  O_8
REMARK    2  A    between atoms: O_8  and  C_9
REMARK    3  A    between atoms: C_15  and  C_16
REMARK    4  A    between atoms: C_16  and  N_17
REMARK    5  A    between atoms: C_21  and  C_22
REMARK                            x       y       z     vdW  Elec       q    Type
REMARK                         _______ _______ _______ _____ _____    ______ ____
ROOT
ATOM      1  C   UNL     1     -26.978   5.060 -41.009  0.00  0.00    +0.184 A 
ATOM      2  C   UNL     1     -27.693   6.218 -40.742  0.00  0.00    +0.230 A 
ATOM      3  O   UNL     1     -29.036   6.149 -40.750  0.00  0.00    -0.283 OA
ATOM      4  C   UNL     1     -27.015   7.394 -40.503  0.00  0.00    +0.043 A 
ATOM      5  C   UNL     1     -25.618   7.378 -40.531  0.00  0.00    +0.006 A 
ATOM      6  C   UNL     1     -24.926   6.195 -40.780  0.00  0.00    +0.001 A 
ATOM      7  C   UNL     1     -25.606   5.032 -41.005  0.00  0.00    +0.041 A 
ENDROOT
BRANCH   1   8
ATOM      8  O   UNL     1     -27.626   3.904 -41.191  0.00  0.00    -0.449 OA
BRANCH   8  11
ATOM      9 CL   UNL     1     -28.932   1.518 -40.399  0.00  0.00    -0.079 Cl
ATOM     10  C   UNL     1     -29.233   2.474 -41.927  0.00  0.00    +0.092 A 
ATOM     11  C   UNL     1     -28.501   3.628 -42.180  0.00  0.00    +0.156 A 
ATOM     12  C   UNL     1     -28.675   4.381 -43.317  0.00  0.00    +0.038 A 
ATOM     13  C   UNL     1     -29.618   3.971 -44.240  0.00  0.00    +0.003 A 
ATOM     14  C   UNL     1     -30.368   2.837 -43.998  0.00  0.00    +0.001 A 
ATOM     15  C   UNL     1     -30.168   2.084 -42.844  0.00  0.00    +0.014 A 
ENDBRANCH   8  11
ENDBRANCH   1   8
BRANCH   5  16
ATOM     16  C   UNL     1     -24.881   8.526 -40.324  0.00  0.00    +0.156 C 
BRANCH  16  17
ATOM     17  N   UNL     1     -24.286   8.911 -41.665  0.00  0.00    -0.226 N 
ATOM     18  N   UNL     1     -23.071   8.969 -41.812  0.00  0.00    -0.064 NA
ATOM     19  N   UNL     1     -22.800   9.292 -43.021  0.00  0.00    -0.133 NA
ATOM     20  C   UNL     1     -23.925   9.456 -43.673  0.00  0.00    +0.100 A 
ATOM     21  C   UNL     1     -24.903   9.217 -42.829  0.00  0.00    +0.114 A 
BRANCH  20  22
ATOM     22  C   UNL     1     -23.958   9.896 -45.097  0.00  0.00    +0.044 C 
ATOM     23  C   UNL     1     -24.986  10.885 -45.650  0.00  0.00    +0.006 C 
ATOM     24  C   UNL     1     -23.661  11.384 -45.189  0.00  0.00    +0.006 C 
ENDBRANCH  20  22
ENDBRANCH  16  17
ENDBRANCH   5  16
TORSDOF 5
