@<TRIPOS>MOLECULE
/web/media/ligands/5NYI_ligand.pdb
 32 35 0 0 0
SMALL
GASTEIGER

@<TRIPOS>ATOM
      1 C           3.2180   -4.6110   28.9200 C.3     1  UNL1        0.1049
      2 C           3.4740   -3.1110   28.8390 C.3     1  UNL1        0.1595
      3 O           4.2270   -2.8810   27.6630 O.3     1  UNL1       -0.3508
      4 C           3.5860   -3.2770   26.4570 C.3     1  UNL1        0.1595
      5 C           3.2770   -4.7720   26.5270 C.3     1  UNL1        0.1049
      6 N           2.4930   -5.0660   27.7340 N.3     1  UNL1       -0.2646
      7 C           2.2820   -6.5080   27.8440 C.3     1  UNL1        0.0993
      8 C           1.4110   -7.0910   26.7610 C.ar    1  UNL1       -0.0061
      9 C           1.9790   -7.6390   25.6390 C.ar    1  UNL1       -0.0029
     10 C           1.2030   -8.1750   24.6410 C.ar    1  UNL1       -0.0001
     11 C           0.0540   -7.0950   26.8910 C.ar    1  UNL1       -0.0029
     12 C          -0.7370   -7.6120   25.9080 C.ar    1  UNL1       -0.0001
     13 C          -0.1740   -8.1700   24.7710 C.ar    1  UNL1        0.0047
     14 C          -1.0520   -8.7590   23.7460 C.ar    1  UNL1        0.0626
     15 C          -1.3620   -8.2430   22.4490 C.ar    1  UNL1        0.1776
     16 C          -0.7410   -7.0290   21.9020 C.2     1  UNL1        0.2858
     17 O          -0.3360   -6.1340   22.5820 O.2     1  UNL1       -0.2666
     18 N          -0.5670   -7.0800   20.5860 N.am    1  UNL1       -0.2003
     19 C           0.0280   -6.0540   19.7580 C.3     1  UNL1        0.1156
     20 C          -0.4740   -6.4040   18.3610 C.3     1  UNL1        0.0253
     21 N          -2.2040   -9.1120   21.9420 N.ar    1  UNL1       -0.0723
     22 O          -2.4660  -10.0620   22.7120 O.2     1  UNL1       -0.3531
     23 C          -1.8080   -9.9230   23.8450 C.ar    1  UNL1        0.1800
     24 C          -1.7720  -10.7400   25.0500 C.ar    1  UNL1        0.0771
     25 C          -0.5290  -11.1430   25.5290 C.ar    1  UNL1        0.0210
     26 C          -0.4690  -11.8770   26.6680 C.ar    1  UNL1        0.0968
     27 CL          1.0440  -12.4460   27.2890 Cl      1  UNL1       -0.0789
     28 C          -1.5900  -12.2070   27.3740 C.ar    1  UNL1        0.2093
     29 O          -1.4780  -12.8970   28.5050 O.3     1  UNL1       -0.2856
     30 C          -2.8270  -11.7890   26.9080 C.ar    1  UNL1        0.0850
     31 C          -2.9240  -11.0550   25.7480 C.ar    1  UNL1        0.2019
     32 O          -4.1080  -10.6630   25.2740 O.3     1  UNL1       -0.2864
@<TRIPOS>BOND
     1     2     1    1
     2     3     2    1
     3     4     5    1
     4     4     3    1
     5     5     6    1
     6     6     7    1
     7     6     1    1
     8     8    11   ar
     9     8     7    1
    10     9     8   ar
    11    10    13   ar
    12    10     9   ar
    13    12    11   ar
    14    13    12   ar
    15    14    23   ar
    16    14    13    1
    17    15    14   ar
    18    16    15    1
    19    16    17    2
    20    18    16   am
    21    19    18    1
    22    20    19    1
    23    21    15   ar
    24    21    22   ar
    25    22    23   ar
    26    23    24    1
    27    24    25   ar
    28    24    31   ar
    29    25    26   ar
    30    26    27    1
    31    26    28   ar
    32    28    29    1
    33    30    28   ar
    34    31    30   ar
    35    32    31    1
