REMARK  Name = /web/media/ligands/5NYI_ligand.pdb
REMARK  6 active torsions:
REMARK  status: ('A' for Active; 'I' for Inactive)
REMARK    1  A    between atoms: N_6  and  C_7
REMARK    2  A    between atoms: C_7  and  C_8
REMARK    3  A    between atoms: C_13  and  C_14
REMARK    4  A    between atoms: C_15  and  C_16
REMARK    5  A    between atoms: N_18  and  C_19
REMARK    6  A    between atoms: C_23  and  C_24
REMARK                            x       y       z     vdW  Elec       q    Type
REMARK                         _______ _______ _______ _____ _____    ______ ____
ROOT
ATOM      1  C   UNL     1      -1.052  -8.759  23.746  0.00  0.00    +0.063 A 
ATOM      2  C   UNL     1      -1.362  -8.243  22.449  0.00  0.00    +0.178 A 
ATOM      3  N   UNL     1      -2.204  -9.112  21.942  0.00  0.00    -0.072 NA
ATOM      4  O   UNL     1      -2.466 -10.062  22.712  0.00  0.00    -0.353 OA
ATOM      5  C   UNL     1      -1.808  -9.923  23.845  0.00  0.00    +0.180 A 
ENDROOT
BRANCH   5   6
ATOM      6  C   UNL     1      -1.772 -10.740  25.050  0.00  0.00    +0.077 A 
ATOM      7  C   UNL     1      -2.924 -11.055  25.748  0.00  0.00    +0.202 A 
ATOM      8  O   UNL     1      -4.108 -10.663  25.274  0.00  0.00    -0.286 OA
ATOM      9  C   UNL     1      -2.827 -11.789  26.908  0.00  0.00    +0.085 A 
ATOM     10  C   UNL     1      -1.590 -12.207  27.374  0.00  0.00    +0.209 A 
ATOM     11  O   UNL     1      -1.478 -12.897  28.505  0.00  0.00    -0.286 OA
ATOM     12  C   UNL     1      -0.469 -11.877  26.668  0.00  0.00    +0.097 A 
ATOM     13 CL   UNL     1       1.044 -12.446  27.289  0.00  0.00    -0.079 Cl
ATOM     14  C   UNL     1      -0.529 -11.143  25.529  0.00  0.00    +0.021 A 
ENDBRANCH   5   6
BRANCH   1  18
ATOM     15  C   UNL     1       1.411  -7.091  26.761  0.00  0.00    -0.006 A 
ATOM     16  C   UNL     1       1.979  -7.639  25.639  0.00  0.00    -0.003 A 
ATOM     17  C   UNL     1       1.203  -8.175  24.641  0.00  0.00    -0.000 A 
ATOM     18  C   UNL     1      -0.174  -8.170  24.771  0.00  0.00    +0.005 A 
ATOM     19  C   UNL     1      -0.737  -7.612  25.908  0.00  0.00    -0.000 A 
ATOM     20  C   UNL     1       0.054  -7.095  26.891  0.00  0.00    -0.003 A 
BRANCH  15  21
ATOM     21  C   UNL     1       2.282  -6.508  27.844  0.00  0.00    +0.099 C 
BRANCH  21  23
ATOM     22  C   UNL     1       3.218  -4.611  28.920  0.00  0.00    +0.105 C 
ATOM     23  N   UNL     1       2.493  -5.066  27.734  0.00  0.00    -0.265 NA
ATOM     24  C   UNL     1       3.277  -4.772  26.527  0.00  0.00    +0.105 C 
ATOM     25  C   UNL     1       3.586  -3.277  26.457  0.00  0.00    +0.159 C 
ATOM     26  O   UNL     1       4.227  -2.881  27.663  0.00  0.00    -0.351 OA
ATOM     27  C   UNL     1       3.474  -3.111  28.839  0.00  0.00    +0.159 C 
ENDBRANCH  21  23
ENDBRANCH  15  21
ENDBRANCH   1  18
BRANCH   2  28
ATOM     28  C   UNL     1      -0.741  -7.029  21.902  0.00  0.00    +0.286 C 
ATOM     29  N   UNL     1      -0.567  -7.080  20.586  0.00  0.00    -0.200 NA
ATOM     30  O   UNL     1      -0.336  -6.134  22.582  0.00  0.00    -0.267 OA
BRANCH  29  31
ATOM     31  C   UNL     1       0.028  -6.054  19.758  0.00  0.00    +0.116 C 
ATOM     32  C   UNL     1      -0.474  -6.404  18.361  0.00  0.00    +0.025 C 
ENDBRANCH  29  31
ENDBRANCH   2  28
TORSDOF 6
