/web/media/ligands/5NYI_ligand.pdb
 OpenBabel04242009293D

 32 35  0  0  0  0  0  0  0  0999 V2000
    3.2180   -4.6110   28.9200 C   0  0  0  0  0  0  0  0  0  0  0  0
    3.4740   -3.1110   28.8390 C   0  0  0  0  0  0  0  0  0  0  0  0
    4.2270   -2.8810   27.6630 O   0  0  0  0  0  0  0  0  0  0  0  0
    3.5860   -3.2770   26.4570 C   0  0  0  0  0  0  0  0  0  0  0  0
    3.2770   -4.7720   26.5270 C   0  0  0  0  0  0  0  0  0  0  0  0
    2.4930   -5.0660   27.7340 N   0  0  0  0  0  0  0  0  0  0  0  0
    2.2820   -6.5080   27.8440 C   0  0  0  0  0  0  0  0  0  0  0  0
    1.4110   -7.0910   26.7610 C   0  0  0  0  0  0  0  0  0  0  0  0
    1.9790   -7.6390   25.6390 C   0  0  0  0  0  0  0  0  0  0  0  0
    1.2030   -8.1750   24.6410 C   0  0  0  0  0  0  0  0  0  0  0  0
    0.0540   -7.0950   26.8910 C   0  0  0  0  0  0  0  0  0  0  0  0
   -0.7370   -7.6120   25.9080 C   0  0  0  0  0  0  0  0  0  0  0  0
   -0.1740   -8.1700   24.7710 C   0  0  0  0  0  0  0  0  0  0  0  0
   -1.0520   -8.7590   23.7460 C   0  0  0  0  0  0  0  0  0  0  0  0
   -1.3620   -8.2430   22.4490 C   0  0  0  0  0  0  0  0  0  0  0  0
   -0.7410   -7.0290   21.9020 C   0  0  0  0  0  0  0  0  0  0  0  0
   -0.3360   -6.1340   22.5820 O   0  0  0  0  0  0  0  0  0  0  0  0
   -0.5670   -7.0800   20.5860 N   0  0  0  0  0  0  0  0  0  0  0  0
    0.0280   -6.0540   19.7580 C   0  0  0  0  0  0  0  0  0  0  0  0
   -0.4740   -6.4040   18.3610 C   0  0  0  0  0  0  0  0  0  0  0  0
   -2.2040   -9.1120   21.9420 N   0  0  0  0  0  0  0  0  0  0  0  0
   -2.4660  -10.0620   22.7120 O   0  0  0  0  0  0  0  0  0  0  0  0
   -1.8080   -9.9230   23.8450 C   0  0  0  0  0  0  0  0  0  0  0  0
   -1.7720  -10.7400   25.0500 C   0  0  0  0  0  0  0  0  0  0  0  0
   -0.5290  -11.1430   25.5290 C   0  0  0  0  0  0  0  0  0  0  0  0
   -0.4690  -11.8770   26.6680 C   0  0  0  0  0  0  0  0  0  0  0  0
    1.0440  -12.4460   27.2890 Cl  0  0  0  0  0  0  0  0  0  0  0  0
   -1.5900  -12.2070   27.3740 C   0  0  0  0  0  0  0  0  0  0  0  0
   -1.4780  -12.8970   28.5050 O   0  0  0  0  0  0  0  0  0  0  0  0
   -2.8270  -11.7890   26.9080 C   0  0  0  0  0  0  0  0  0  0  0  0
   -2.9240  -11.0550   25.7480 C   0  0  0  0  0  0  0  0  0  0  0  0
   -4.1080  -10.6630   25.2740 O   0  0  0  0  0  0  0  0  0  0  0  0
  2  1  1  0  0  0  0
  3  2  1  0  0  0  0
  4  5  1  0  0  0  0
  4  3  1  0  0  0  0
  5  6  1  0  0  0  0
  6  7  1  0  0  0  0
  6  1  1  0  0  0  0
  8 11  1  0  0  0  0
  8  7  1  0  0  0  0
  9  8  2  0  0  0  0
 10 13  2  0  0  0  0
 10  9  1  0  0  0  0
 12 11  2  0  0  0  0
 13 12  1  0  0  0  0
 14 23  2  0  0  0  0
 14 13  1  0  0  0  0
 15 14  1  0  0  0  0
 16 15  1  0  0  0  0
 16 17  2  0  0  0  0
 18 16  1  0  0  0  0
 19 18  1  0  0  0  0
 20 19  1  0  0  0  0
 21 15  2  0  0  0  0
 21 22  1  0  0  0  0
 22 23  1  0  0  0  0
 23 24  1  0  0  0  0
 24 25  2  0  0  0  0
 24 31  1  0  0  0  0
 25 26  1  0  0  0  0
 26 27  1  0  0  0  0
 26 28  2  0  0  0  0
 28 29  1  0  0  0  0
 30 28  1  0  0  0  0
 31 30  2  0  0  0  0
 32 31  1  0  0  0  0
M  END
>  <REMARK>
 800 SITE_DESCRIPTION: binding site for residue 2EQ A 301                 

>  <HET>
 2EQ  A 301      32                                                       

>  <HETNAM>
     2EQ 5-(5-CHLORO-2,4-DIHYDROXYPHENYL)-N-ETHYL-4-[4-                   
   2 2EQ  (MORPHOLIN-4-YLMETHYL)PHENYL]ISOXAZOLE-3-CARBOXAMIDE            

>  <FORMUL>
   2  2EQ    C23 H24 CL N3 O5                                             

$$$$
