@<TRIPOS>MOLECULE
GDM
   86    87     1     0     0
SMALL
bcc


@<TRIPOS>ATOM
      1 C1          39.2170   -50.1180    67.8480 c        275 GDM       0.676100
      2 N1          39.5890   -49.1610    68.8170 n        275 GDM      -0.481100
      3 O1          38.4350   -50.9890    68.1470 o        275 GDM      -0.579100
      4 C2          39.8780   -50.0730    66.5040 c3       275 GDM      -0.120700
      5 N2          36.7290   -43.1860    62.2470 n        275 GDM      -0.638000
      6 O2          37.5890   -47.3870    62.6380 os       275 GDM      -0.414600
      7 C3          39.7130   -48.9800    65.7140 c3       275 GDM      -0.079400
      8 O3          37.9680   -44.7170    63.2480 os       275 GDM      -0.441900
      9 C4          40.2930   -48.7990    64.3870 c3       275 GDM      -0.077400
     10 O4          38.9370   -43.2560    61.7630 o        275 GDM      -0.589000
     11 C5          39.8560   -47.9390    63.4440 c3       275 GDM      -0.089400
     12 O5          44.9430   -43.4780    64.4210 oh       275 GDM      -0.582800
     13 C6          38.7090   -46.9950    63.5290 c3       275 GDM       0.138100
     14 O6          45.4050   -46.2650    63.7580 os       275 GDM      -0.409600
     15 C7          39.1110   -45.5010    63.1470 c3       275 GDM       0.138100
     16 O7          43.2450   -44.8190    68.5200 os       275 GDM      -0.319900
     17 C8          40.2740   -44.8800    64.1120 c3       275 GDM      -0.083700
     18 O8          40.6420   -44.5160    69.2530 o        275 GDM      -0.509100
     19 C9          41.4060   -44.4320    63.5920 c3       275 GDM      -0.079400
     20 O9          42.1120   -49.4480    68.1200 o        275 GDM      -0.491100
     21 C10         42.5670   -43.7870    64.2880 c3       275 GDM      -0.096700
     22 C11         43.9320   -44.3370    63.8430 c3       275 GDM       0.119100
     23 C12         44.1430   -45.7890    64.2740 c3       275 GDM       0.109100
     24 C13         44.1980   -45.9760    65.7870 c3       275 GDM      -0.079400
     25 C14         44.3630   -47.4320    66.2830 c3       275 GDM      -0.053700
     26 C15         44.1620   -47.5820    67.8310 c3       275 GDM      -0.032200
     27 C16         42.7820   -47.1900    68.2720 cc       275 GDM      -0.192400
     28 C17         42.3590   -45.9580    68.5760 cd       275 GDM       0.051900
     29 C18         40.9730   -45.6670    68.9870 c        275 GDM       0.560500
     30 C19         40.0010   -46.7620    69.0660 cc       275 GDM      -0.307200
     31 C20         40.3710   -48.0090    68.7820 cd       275 GDM       0.049400
     32 C21         41.7830   -48.2910    68.3730 c        275 GDM       0.568500
     33 C22         40.6640   -51.2890    66.1240 c3       275 GDM      -0.089100
     34 C23         37.8540   -48.5360    61.7580 c3       275 GDM       0.117700
     35 C24         37.9700   -43.6720    62.3560 c        275 GDM       0.738100
     36 C25         39.9400   -44.8150    65.6040 c3       275 GDM      -0.084100
     37 C26         42.4790   -42.2760    63.9780 c3       275 GDM      -0.087100
     38 C27         45.4000   -46.4540    62.3080 c3       275 GDM       0.112700
     39 C28         43.4520   -48.3420    65.5110 c3       275 GDM      -0.100100
     40 C29         44.6220   -44.8250    68.9240 c3       275 GDM       0.113700
     41 H02         40.3800   -49.5660    65.6800 hc       275 GDM       0.082700
     42 H14         41.3570   -44.8920    64.2340 hc       275 GDM       0.047700
     43 H01         39.2060   -49.3530    69.7320 hn       275 GDM       0.328500
     44 H03         35.9770   -43.5960    62.7820 hn       275 GDM       0.323000
     45 H04         36.5440   -42.4090    61.6290 hn       275 GDM       0.323000
     46 H05         40.2920   -48.2480    66.2770 hc       275 GDM       0.048700
     47 H06         38.6360   -48.8850    65.5740 hc       275 GDM       0.048700
     48 H07         40.0040   -49.7440    63.9260 hc       275 GDM       0.053200
     49 H08         41.3340   -48.5270    64.5630 hc       275 GDM       0.053200
     50 H09         39.4250   -48.6600    62.7500 hc       275 GDM       0.058200
     51 H10         40.7180   -47.3090    63.2230 hc       275 GDM       0.058200
     52 H11         45.2050   -43.8230    65.2780 ho       275 GDM       0.397000
     53 H12         38.3970   -47.0400    64.5720 h1       275 GDM       0.054700
     54 H13         39.5170   -45.5090    62.1360 h1       275 GDM       0.089700
     55 H15         41.0100   -43.5470    63.0940 hc       275 GDM       0.058200
     56 H16         41.8360   -45.2980    63.0880 hc       275 GDM       0.058200
     57 H17         42.5040   -44.0000    65.3550 hc       275 GDM       0.042700
     58 H18         43.9890   -44.3390    62.7550 h1       275 GDM       0.084700
     59 H19         43.2880   -46.3400    63.8830 h1       275 GDM       0.042700
     60 H20         43.2280   -45.6460    66.1600 hc       275 GDM       0.057200
     61 H21         45.0400   -45.3960    66.1650 hc       275 GDM       0.057200
     62 H22         45.3960   -47.7260    66.0960 hc       275 GDM       0.071700
     63 H23         44.8690   -46.9140    68.3230 hc       275 GDM       0.068700
     64 H24         44.3360   -48.6220    68.1080 hc       275 GDM       0.068700
     65 H25         38.9720   -46.5540    69.3580 ha       275 GDM       0.166000
     66 H26         41.6260   -51.2740    66.6370 hc       275 GDM       0.051367
     67 H27         40.1130   -52.1840    66.4130 hc       275 GDM       0.051367
     68 H28         40.8270   -51.2950    65.0460 hc       275 GDM       0.051367
     69 H29         38.8660   -48.9020    61.9330 h1       275 GDM       0.035700
     70 H30         37.1390   -49.3310    61.9720 h1       275 GDM       0.035700
     71 H31         37.7550   -48.2280    60.7170 h1       275 GDM       0.035700
     72 H32         38.9000   -45.1050    65.7560 hc       275 GDM       0.039033
     73 H33         40.5900   -45.4970    66.1530 hc       275 GDM       0.039033
     74 H34         40.0900   -43.7980    65.9670 hc       275 GDM       0.039033
     75 H35         41.6780   -41.8310    64.5680 hc       275 GDM       0.039700
     76 H36         43.4250   -41.7970    64.2310 hc       275 GDM       0.039700
     77 H37         42.2710   -42.1340    62.9180 hc       275 GDM       0.039700
     78 H38         45.8490   -45.5850    61.8270 h1       275 GDM       0.033033
     79 H39         45.9740   -47.3450    62.0550 h1       275 GDM       0.033033
     80 H40         44.3740   -46.5710    61.9600 h1       275 GDM       0.033033
     81 H41         42.5520   -47.7980    65.2260 hc       275 GDM       0.035033
     82 H42         43.9630   -48.6930    64.6140 hc       275 GDM       0.035033
     83 H43         43.1790   -49.1960    66.1320 hc       275 GDM       0.035033
     84 H44         45.1900   -44.1490    68.2850 h1       275 GDM       0.057700
     85 H45         44.6990   -44.4950    69.9600 h1       275 GDM       0.057700
     86 H46         45.0240   -45.8340    68.8330 h1       275 GDM       0.057700
@<TRIPOS>BOND
     1     1     2 1   
     2     1     3 2   
     3     1     4 1   
     4     2    31 1   
     5     2    43 1   
     6     4     7 1   
     7     4    33 1   
     8     4    41 1   
     9     5    35 1   
    10     5    44 1   
    11     5    45 1   
    12     6    13 1   
    13     6    34 1   
    14     7     9 1   
    15     7    46 1   
    16     7    47 1   
    17     8    15 1   
    18     8    35 1   
    19     9    11 1   
    20     9    48 1   
    21     9    49 1   
    22    10    35 2   
    23    11    13 1   
    24    11    50 1   
    25    11    51 1   
    26    12    22 1   
    27    12    52 1   
    28    13    15 1   
    29    13    53 1   
    30    14    23 1   
    31    14    38 1   
    32    15    17 1   
    33    15    54 1   
    34    16    28 1   
    35    16    40 1   
    36    17    19 1   
    37    17    36 1   
    38    17    42 1   
    39    18    29 2   
    40    19    21 1   
    41    19    55 1   
    42    19    56 1   
    43    20    32 2   
    44    21    22 1   
    45    21    37 1   
    46    21    57 1   
    47    22    23 1   
    48    22    58 1   
    49    23    24 1   
    50    23    59 1   
    51    24    25 1   
    52    24    60 1   
    53    24    61 1   
    54    25    26 1   
    55    25    39 1   
    56    25    62 1   
    57    26    27 1   
    58    26    63 1   
    59    26    64 1   
    60    27    28 2   
    61    27    32 1   
    62    28    29 1   
    63    29    30 1   
    64    30    31 2   
    65    30    65 1   
    66    31    32 1   
    67    33    66 1   
    68    33    67 1   
    69    33    68 1   
    70    34    69 1   
    71    34    70 1   
    72    34    71 1   
    73    36    72 1   
    74    36    73 1   
    75    36    74 1   
    76    37    75 1   
    77    37    76 1   
    78    37    77 1   
    79    38    78 1   
    80    38    79 1   
    81    38    80 1   
    82    39    81 1   
    83    39    82 1   
    84    39    83 1   
    85    40    84 1   
    86    40    85 1   
    87    40    86 1   
@<TRIPOS>SUBSTRUCTURE
     1 GDM         1 TEMP              0 ****  ****    0 ROOT
