REMARK  Name = /web/media/ligands/2YKI_ligand.pdb
REMARK  3 active torsions:
REMARK  status: ('A' for Active; 'I' for Inactive)
REMARK    1  A    between atoms: C_7  and  C_13
REMARK    2  A    between atoms: N_8  and  C_22
REMARK    3  A    between atoms: C_17  and  C_18
REMARK                            x       y       z     vdW  Elec       q    Type
REMARK                         _______ _______ _______ _____ _____    ______ ____
ROOT
ATOM      1  C   UNL     1       7.331  14.405  26.030  0.00  0.00    +0.036 A 
ATOM      2  C   UNL     1       6.585  13.335  25.230  0.00  0.00    +0.001 A 
ATOM      3  C   UNL     1       7.009  12.105  24.525  0.00  0.00    -0.002 A 
ATOM      4  C   UNL     1       8.293  11.433  24.326  0.00  0.00    -0.000 A 
ATOM      5  C   UNL     1       8.370  10.214  23.575  0.00  0.00    -0.000 A 
ATOM      6  C   UNL     1       7.160   9.637  23.009  0.00  0.00    -0.000 A 
ATOM      7  C   UNL     1       5.896  10.288  23.198  0.00  0.00    -0.002 A 
ATOM      8  C   UNL     1       5.824  11.517  23.956  0.00  0.00    +0.002 A 
ATOM      9  C   UNL     1       4.571  12.387  24.272  0.00  0.00    +0.140 C 
ATOM     10  C   UNL     1       5.196  13.465  25.065  0.00  0.00    +0.002 A 
ATOM     11  C   UNL     1       4.475  14.576  25.639  0.00  0.00    -0.002 A 
ATOM     12  C   UNL     1       5.159  15.577  26.392  0.00  0.00    -0.000 A 
ATOM     13  C   UNL     1       6.578  15.475  26.577  0.00  0.00    +0.003 A 
ENDROOT
BRANCH   1  20
ATOM     14  C   UNL     1      13.310  14.405  26.485  0.00  0.00    +0.101 A 
ATOM     15  C   UNL     1      12.283  14.261  25.522  0.00  0.00    +0.041 A 
ATOM     16  C   UNL     1      10.953  14.344  25.969  0.00  0.00    +0.104 A 
ATOM     17  C   UNL     1      10.658  14.559  27.374  0.00  0.00    +0.120 A 
ATOM     18  C   UNL     1      11.716  14.696  28.295  0.00  0.00    +0.119 A 
ATOM     19  N   UNL     1       9.291  14.593  27.488  0.00  0.00    -0.224 NA
ATOM     20  C   UNL     1       8.758  14.411  26.268  0.00  0.00    +0.162 A 
ATOM     21  N   UNL     1       9.740  14.258  25.343  0.00  0.00    -0.225 NA
ATOM     22  N   UNL     1      13.026  14.614  27.834  0.00  0.00    -0.241 NA
ENDBRANCH   1  20
BRANCH   9  23
ATOM     23  N   UNL     1       3.569  11.956  24.655  0.00  0.00    -0.198 NA
ATOM     24  C   UNL     1       2.444  11.485  24.079  0.00  0.00    +0.250 C 
ATOM     25  O   UNL     1       2.424  11.480  22.839  0.00  0.00    -0.273 OA
BRANCH  24  26
ATOM     26  C   UNL     1       1.243  11.011  24.859  0.00  0.00    +0.134 C 
ATOM     27  C   UNL     1      -0.080  11.456  24.325  0.00  0.00    +0.083 C 
ATOM     28  C   UNL     1      -0.527  12.264  23.221  0.00  0.00    +0.055 C 
ATOM     29  C   UNL     1      -1.935  12.299  23.294  0.00  0.00    +0.236 C 
ATOM     30  N   UNL     1      -2.359  11.562  24.386  0.00  0.00    -0.031 NA
ATOM     31  C   UNL     1      -1.224  11.073  24.992  0.00  0.00    +0.372 C 
ATOM     32  N   UNL     1      -1.162  10.267  26.134  0.00  0.00    -0.031 NA
ATOM     33  C   UNL     1       0.047   9.826  26.664  0.00  0.00    +0.232 C 
ATOM     34  C   UNL     1       1.292  10.182  26.038  0.00  0.00    +0.038 C 
ENDBRANCH  24  26
ENDBRANCH   9  23
TORSDOF 3
