@<TRIPOS>MOLECULE
/web/media/ligands/2YKI_ligand.pdb
 34 40 0 0 0
SMALL
GASTEIGER

@<TRIPOS>ATOM
      1 C          13.3100   14.4050   26.4850 C.ar    1  UNL1        0.1005
      2 N          13.0260   14.6140   27.8340 N.ar    1  UNL1       -0.2406
      3 C          11.7160   14.6960   28.2950 C.ar    1  UNL1        0.1195
      4 N           9.2910   14.5930   27.4880 N.ar    1  UNL1       -0.2235
      5 C          12.2830   14.2610   25.5220 C.ar    1  UNL1        0.0414
      6 N           9.7400   14.2580   25.3430 N.ar    1  UNL1       -0.2250
      7 C           8.7580   14.4110   26.2680 C.ar    1  UNL1        0.1623
      8 N           3.5690   11.9560   24.6550 N.am    1  UNL1       -0.1976
      9 C          10.9530   14.3440   25.9690 C.ar    1  UNL1        0.1037
     10 N          -1.1620   10.2670   26.1340 N.2     1  UNL1       -0.0311
     11 C          10.6580   14.5590   27.3740 C.ar    1  UNL1        0.1197
     12 N          -2.3590   11.5620   24.3860 N.2     1  UNL1       -0.0308
     13 C           7.3310   14.4050   26.0300 C.ar    1  UNL1        0.0355
     14 C           4.4750   14.5760   25.6390 C.ar    1  UNL1       -0.0023
     15 C           5.1590   15.5770   26.3920 C.ar    1  UNL1       -0.0002
     16 C           6.5780   15.4750   26.5770 C.ar    1  UNL1        0.0030
     17 C           2.4440   11.4850   24.0790 C.2     1  UNL1        0.2501
     18 C           1.2430   11.0110   24.8590 C.3     1  UNL1        0.1337
     19 O           2.4240   11.4800   22.8390 O.2     1  UNL1       -0.2726
     20 C           1.2920   10.1820   26.0380 C.2     1  UNL1        0.0378
     21 C           0.0470    9.8260   26.6640 C.2     1  UNL1        0.2322
     22 C           4.5710   12.3870   24.2720 C.3     1  UNL1        0.1397
     23 C           5.1960   13.4650   25.0650 C.ar    1  UNL1        0.0017
     24 C           6.5850   13.3350   25.2300 C.ar    1  UNL1        0.0007
     25 C           5.8240   11.5170   23.9560 C.ar    1  UNL1        0.0016
     26 C           7.0090   12.1050   24.5250 C.ar    1  UNL1       -0.0022
     27 C           8.2930   11.4330   24.3260 C.ar    1  UNL1       -0.0003
     28 C           8.3700   10.2140   23.5750 C.ar    1  UNL1       -0.0000
     29 C           7.1600    9.6370   23.0090 C.ar    1  UNL1       -0.0003
     30 C           5.8960   10.2880   23.1980 C.ar    1  UNL1       -0.0023
     31 C          -0.0800   11.4560   24.3250 C.2     1  UNL1        0.0826
     32 C          -1.2240   11.0730   24.9920 C.2     1  UNL1        0.3724
     33 C          -1.9350   12.2990   23.2940 C.2     1  UNL1        0.2359
     34 C          -0.5270   12.2640   23.2210 C.2     1  UNL1        0.0547
@<TRIPOS>BOND
     1     1     2   ar
     2     2     3   ar
     3     5     9   ar
     4     5     1   ar
     5     6     9   ar
     6     6     7   ar
     7     7     4   ar
     8     9    11   ar
     9    10    21    1
    10    11     4   ar
    11    11     3   ar
    12    12    32    1
    13    13     7    1
    14    13    16   ar
    15    14    15   ar
    16    15    16   ar
    17    17     8   am
    18    18    17    1
    19    18    20    1
    20    19    17    2
    21    20    21    2
    22    22     8    1
    23    22    23    1
    24    23    24   ar
    25    23    14   ar
    26    24    13   ar
    27    25    22    1
    28    25    26   ar
    29    26    24    1
    30    27    26   ar
    31    28    27   ar
    32    29    30   ar
    33    29    28   ar
    34    30    25   ar
    35    31    18    1
    36    31    32    1
    37    32    10    2
    38    33    12    2
    39    34    33    1
    40    34    31    2
