@<TRIPOS>MOLECULE
1US
   36    37     1     0     0
SMALL
bcc


@<TRIPOS>ATOM
      1 CL1         -4.1670   -19.8360    27.8390 cl       302 1US      -0.070400
      2 C01         -3.1410   -15.1730    32.2690 ca       302 1US      -0.155000
      3 C02         -3.2110   -16.3250    31.4790 ca       302 1US      -0.104000
      4 C03         -3.6930   -16.2430    30.1640 ca       302 1US      -0.006900
      5 C04         -4.1170   -15.0040    29.6510 ca       302 1US       0.136100
      6 C05         -4.0540   -13.8630    30.4500 ca       302 1US      -0.153000
      7 C06         -3.5670   -13.9450    31.7510 ca       302 1US      -0.042300
      8 C07         -3.4580   -12.6640    32.5780 c3       302 1US      -0.041100
      9 C08         -2.3230   -11.7400    32.1700 c3       302 1US      -0.075400
     10 C09         -0.9540   -11.7820    32.8370 c3       302 1US      -0.082400
     11 C10          0.0560   -10.7410    32.3470 c3       302 1US      -0.092100
     12 O13         -4.5900   -14.8880    28.3370 oh       302 1US      -0.491100
     13 O14         -3.8130   -17.4090    29.4030 os       302 1US      -0.248200
     14 C15         -2.6980   -17.6610    28.5900 ca       302 1US       0.114100
     15 C16         -2.7130   -18.8100    27.8080 ca       302 1US      -0.004600
     16 C17         -1.6360   -19.1230    26.9900 ca       302 1US      -0.104000
     17 C18         -0.5310   -18.2700    26.9360 ca       302 1US      -0.146000
     18 C19         -0.5110   -17.1140    27.7190 ca       302 1US      -0.101000
     19 C20         -1.5940   -16.8110    28.5440 ca       302 1US      -0.173000
     20 H01         -2.7550   -15.2320    33.2870 ha       302 1US       0.139000
     21 H02         -2.8920   -17.2850    31.8840 ha       302 1US       0.149000
     22 H03         -4.3870   -12.9040    30.0540 ha       302 1US       0.155000
     23 H04         -3.2490   -12.9750    33.6010 hc       302 1US       0.051700
     24 H05         -4.3950   -12.1160    32.4810 hc       302 1US       0.051700
     25 H06         -2.6990   -10.7690    32.4920 hc       302 1US       0.044700
     26 H07         -2.1500   -11.9220    31.1090 hc       302 1US       0.044700
     27 H08         -0.5280   -12.7520    32.5800 hc       302 1US       0.040200
     28 H09         -1.0970   -11.6320    33.9070 hc       302 1US       0.040200
     29 H10          0.9810   -11.2400    32.0600 hc       302 1US       0.033367
     30 H11         -0.3540   -10.2140    31.4850 hc       302 1US       0.033367
     31 H12          0.2610   -10.0280    33.1460 hc       302 1US       0.033367
     32 H13         -4.8310   -15.7560    28.0050 ho       302 1US       0.438000
     33 H14         -1.6520   -20.0330    26.3910 ha       302 1US       0.150000
     34 H15          0.3110   -18.5060    26.2860 ha       302 1US       0.140000
     35 H16          0.3510   -16.4480    27.6850 ha       302 1US       0.139000
     36 H17         -1.5770   -15.9080    29.1540 ha       302 1US       0.154000
@<TRIPOS>BOND
     1     1    15 1   
     2     2     3 ar  
     3     2     7 ar  
     4     2    20 1   
     5     3     4 ar  
     6     3    21 1   
     7     4     5 ar  
     8     4    13 1   
     9     5     6 ar  
    10     5    12 1   
    11     6     7 ar  
    12     6    22 1   
    13     7     8 1   
    14     8     9 1   
    15     8    23 1   
    16     8    24 1   
    17     9    10 1   
    18     9    25 1   
    19     9    26 1   
    20    10    11 1   
    21    10    27 1   
    22    10    28 1   
    23    11    29 1   
    24    11    30 1   
    25    11    31 1   
    26    12    32 1   
    27    13    14 1   
    28    14    15 ar  
    29    14    19 ar  
    30    15    16 ar  
    31    16    17 ar  
    32    16    33 1   
    33    17    18 ar  
    34    17    34 1   
    35    18    19 ar  
    36    18    35 1   
    37    19    36 1   
@<TRIPOS>SUBSTRUCTURE
     1 1US         1 TEMP              0 ****  ****    0 ROOT
