@<TRIPOS>MOLECULE
AB1
   94    97     1     0     0
SMALL
bcc


@<TRIPOS>ATOM
      1 C1           5.1690    16.3660    63.7490 c3       201 AB1       0.082000
      2 N1           7.9290    16.8830    63.2380 n        201 AB1      -0.436800
      3 O1           8.4780    15.0970    64.5340 o        201 AB1      -0.702500
      4 C2           6.9050    17.8280    62.7300 c3       201 AB1       0.075000
      5 N2           6.2810    15.6640    64.3580 n        201 AB1      -0.542900
      6 O2           9.5800    19.4040    63.1950 o        201 AB1      -0.636100
      7 C3           7.6160    15.8750    64.0460 c        201 AB1       0.788500
      8 N3          10.6460    18.0430    64.7140 n        201 AB1      -0.558900
      9 O3          16.0380    22.5870    65.7550 os       201 AB1      -0.350900
     10 C4          14.9030    20.5570    61.6730 ca       201 AB1      -0.079300
     11 N4          14.4420    20.8770    64.4590 n        201 AB1      -0.529900
     12 O4          14.7790    18.0320    64.9890 oh       201 AB1      -0.601800
     13 C5          16.1800    21.0410    61.5330 ca       201 AB1      -0.123500
     14 O5          12.6920    22.3170    64.4620 o        201 AB1      -0.629100
     15 C6          16.5140    22.0890    60.6710 ca       201 AB1      -0.131500
     16 C7          15.5240    22.7110    59.9030 ca       201 AB1      -0.132000
     17 C8          14.2320    22.2350    60.0340 ca       201 AB1      -0.131500
     18 C9          13.9370    21.1300    60.8370 ca       201 AB1      -0.123500
     19 C10          9.3570    17.0790    62.8830 c3       201 AB1       0.036700
     20 C11          9.8930    18.2830    63.6240 c        201 AB1       0.629100
     21 C12         11.1440    19.0920    65.6120 c3       201 AB1       0.094700
     22 C13          9.5600    17.1780    61.3780 c3       201 AB1      -0.059700
     23 C14         11.0550    17.3980    61.1040 c3       201 AB1      -0.092100
     24 C15          9.1070    15.8860    60.6920 c3       201 AB1      -0.092100
     25 C16          7.2070    20.9410    66.8420 ca       201 AB1      -0.137000
     26 C17          6.2710    19.9210    66.7520 ca       201 AB1      -0.137000
     27 C18          6.7020    18.6020    66.7220 ca       201 AB1      -0.137000
     28 C19          8.0770    18.3380    66.8010 ca       201 AB1      -0.125500
     29 C20          9.0270    19.3410    66.8460 ca       201 AB1      -0.080300
     30 C21          8.5670    20.6610    66.9080 ca       201 AB1      -0.125500
     31 C22         10.3790    19.0760    66.9460 c3       201 AB1      -0.046100
     32 C23         12.6250    18.8120    65.8670 c3       201 AB1      -0.090400
     33 C24         13.4830    18.5890    64.6170 c3       201 AB1       0.123100
     34 C25         13.7460    19.7990    63.7270 c3       201 AB1       0.055700
     35 C26         13.8710    22.0720    64.6950 c        201 AB1       0.661100
     36 C27         14.8000    23.1450    65.2660 c3       201 AB1       0.054400
     37 C28         16.8770    23.5730    66.1050 ca       201 AB1       0.081100
     38 C29         14.5960    19.4570    62.4960 c3       201 AB1      -0.042100
     39 C30         16.8070    24.1500    67.3650 ca       201 AB1      -0.076800
     40 C31         17.7090    25.1670    67.6510 ca       201 AB1      -0.129000
     41 C32         18.6280    25.6400    66.7020 ca       201 AB1      -0.124000
     42 C33         18.6870    25.0210    65.4470 ca       201 AB1      -0.129000
     43 C34         17.8450    23.9250    65.1900 ca       201 AB1      -0.076800
     44 C35         17.8190    23.3160    63.9240 c3       201 AB1      -0.054800
     45 C36         15.8580    23.7900    68.3460 c3       201 AB1      -0.054800
     46 C37          5.6050    17.1050    62.4870 c3       201 AB1      -0.095400
     47 H01          4.7910    17.0980    64.4630 h1       201 AB1       0.045700
     48 H02          4.3930    15.6460    63.4900 h1       201 AB1       0.045700
     49 H03          7.2530    18.2590    61.7910 h1       201 AB1       0.056700
     50 H04          6.7470    18.6180    63.4640 h1       201 AB1       0.056700
     51 H05          6.0680    14.9710    65.0610 hn       201 AB1       0.323500
     52 H06         10.8820    17.0840    64.9260 hn       201 AB1       0.336500
     53 H07         15.3800    20.7110    64.7940 hn       201 AB1       0.324500
     54 H08         15.0900    17.4500    64.2920 ho       201 AB1       0.398000
     55 H09         16.9740    20.5850    62.1240 ha       201 AB1       0.143500
     56 H10         17.5490    22.4230    60.5970 ha       201 AB1       0.129000
     57 H11         15.7610    23.5350    59.2300 ha       201 AB1       0.128000
     58 H12         13.4240    22.7340    59.4980 ha       201 AB1       0.129000
     59 H13         12.9340    20.7050    60.8120 ha       201 AB1       0.143500
     60 H14          9.9260    16.2030    63.1950 h1       201 AB1       0.102700
     61 H15         11.0010    20.0720    65.1560 h1       201 AB1       0.106700
     62 H16          8.9710    18.0070    60.9850 hc       201 AB1       0.070700
     63 H17         11.6310    16.6020    61.5750 hc       201 AB1       0.039200
     64 H18         11.2330    17.3880    60.0290 hc       201 AB1       0.039200
     65 H19         11.3630    18.3600    61.5150 hc       201 AB1       0.039200
     66 H20          8.1900    16.0740    60.1330 hc       201 AB1       0.039200
     67 H21          9.8850    15.5450    60.0090 hc       201 AB1       0.039200
     68 H22          8.9220    15.1200    61.4450 hc       201 AB1       0.039200
     69 H23          6.8710    21.9780    66.8610 ha       201 AB1       0.128500
     70 H24          5.2070    20.1530    66.7050 ha       201 AB1       0.127000
     71 H25          5.9840    17.7860    66.6390 ha       201 AB1       0.128500
     72 H26          8.4100    17.3000    66.8280 ha       201 AB1       0.148000
     73 H27          9.2820    21.4780    67.0090 ha       201 AB1       0.148000
     74 H28         10.8030    19.8780    67.5500 hc       201 AB1       0.058200
     75 H29         10.4990    18.0890    67.3940 hc       201 AB1       0.058200
     76 H30         12.6590    17.8740    66.4220 hc       201 AB1       0.061700
     77 H31         13.0380    19.6610    66.4110 hc       201 AB1       0.061700
     78 H32         12.8720    17.9090    64.0230 h1       201 AB1       0.044700
     79 H33         12.7590    20.1310    63.4060 h1       201 AB1       0.122700
     80 H34         14.2900    23.6180    66.1060 h1       201 AB1       0.070200
     81 H35         15.0250    23.8690    64.4830 h1       201 AB1       0.070200
     82 H36         15.5460    19.0780    62.8720 hc       201 AB1       0.049700
     83 H37         14.0520    18.7260    61.8980 hc       201 AB1       0.049700
     84 H38         17.7030    25.6120    68.6460 ha       201 AB1       0.135500
     85 H39         19.2860    26.4760    66.9380 ha       201 AB1       0.134000
     86 H40         19.3740    25.3830    64.6820 ha       201 AB1       0.135500
     87 H41         17.9410    24.0770    63.1530 hc       201 AB1       0.049867
     88 H42         18.6310    22.5920    63.8520 hc       201 AB1       0.049867
     89 H43         16.8650    22.8080    63.7840 hc       201 AB1       0.049867
     90 H44         14.9230    23.5110    67.8610 hc       201 AB1       0.049867
     91 H45         16.2340    22.9450    68.9230 hc       201 AB1       0.049867
     92 H46         15.6830    24.6360    69.0110 hc       201 AB1       0.049867
     93 H47          4.8390    17.8320    62.2180 hc       201 AB1       0.063200
     94 H48          5.7370    16.3880    61.6770 hc       201 AB1       0.063200
@<TRIPOS>BOND
     1     1     5 1   
     2     1    46 1   
     3     1    47 1   
     4     1    48 1   
     5     2     4 1   
     6     2     7 1   
     7     2    19 1   
     8     3     7 2   
     9     4    46 1   
    10     4    49 1   
    11     4    50 1   
    12     5     7 1   
    13     5    51 1   
    14     6    20 2   
    15     8    20 1   
    16     8    21 1   
    17     8    52 1   
    18     9    36 1   
    19     9    37 1   
    20    10    13 ar  
    21    10    18 ar  
    22    10    38 1   
    23    11    34 1   
    24    11    35 1   
    25    11    53 1   
    26    12    33 1   
    27    12    54 1   
    28    13    15 ar  
    29    13    55 1   
    30    14    35 2   
    31    15    16 ar  
    32    15    56 1   
    33    16    17 ar  
    34    16    57 1   
    35    17    18 ar  
    36    17    58 1   
    37    18    59 1   
    38    19    20 1   
    39    19    22 1   
    40    19    60 1   
    41    21    31 1   
    42    21    32 1   
    43    21    61 1   
    44    22    23 1   
    45    22    24 1   
    46    22    62 1   
    47    23    63 1   
    48    23    64 1   
    49    23    65 1   
    50    24    66 1   
    51    24    67 1   
    52    24    68 1   
    53    25    26 ar  
    54    25    30 ar  
    55    25    69 1   
    56    26    27 ar  
    57    26    70 1   
    58    27    28 ar  
    59    27    71 1   
    60    28    29 ar  
    61    28    72 1   
    62    29    30 ar  
    63    29    31 1   
    64    30    73 1   
    65    31    74 1   
    66    31    75 1   
    67    32    33 1   
    68    32    76 1   
    69    32    77 1   
    70    33    34 1   
    71    33    78 1   
    72    34    38 1   
    73    34    79 1   
    74    35    36 1   
    75    36    80 1   
    76    36    81 1   
    77    37    39 ar  
    78    37    43 ar  
    79    38    82 1   
    80    38    83 1   
    81    39    40 ar  
    82    39    45 1   
    83    40    41 ar  
    84    40    84 1   
    85    41    42 ar  
    86    41    85 1   
    87    42    43 ar  
    88    42    86 1   
    89    43    44 1   
    90    44    87 1   
    91    44    88 1   
    92    44    89 1   
    93    45    90 1   
    94    45    91 1   
    95    45    92 1   
    96    46    93 1   
    97    46    94 1   
@<TRIPOS>SUBSTRUCTURE
     1 AB1         1 TEMP              0 ****  ****    0 ROOT
