@<TRIPOS>MOLECULE
AB1
   94    97     1     0     0
SMALL
bcc


@<TRIPOS>ATOM
      1 C1          18.7750    26.2650    62.8730 c3       201 AB1       0.082000
      2 N1          17.0170    24.2960    64.0590 n        201 AB1      -0.436800
      3 O1          18.8460    23.0550    64.5310 o        201 AB1      -0.702500
      4 C2          16.4710    25.4860    63.3660 c3       201 AB1       0.075000
      5 N2          19.1630    24.8920    63.2750 n        201 AB1      -0.542900
      6 O2          14.1460    23.2340    63.4590 o        201 AB1      -0.635100
      7 C3          18.3290    24.0320    63.9860 c        201 AB1       0.788500
      8 N3          15.5410    21.4420    63.5210 n        201 AB1      -0.558900
      9 O3          10.1310    17.0040    62.4300 os       201 AB1      -0.354900
     10 C4          10.6240    19.8120    66.1890 ca       201 AB1      -0.084300
     11 N4          11.6900    18.7450    63.7310 n        201 AB1      -0.548900
     12 O4          14.0650    17.8530    65.1410 oh       201 AB1      -0.599800
     13 C5           9.6810    18.8420    66.5130 ca       201 AB1      -0.127000
     14 O5          11.1660    20.3710    62.2200 o        201 AB1      -0.630100
     15 C6           8.3480    19.1960    66.6510 ca       201 AB1      -0.132500
     16 C7           7.9270    20.5000    66.4430 ca       201 AB1      -0.134000
     17 C8           8.8730    21.4840    66.1600 ca       201 AB1      -0.132500
     18 C9          10.2090    21.1230    66.0310 ca       201 AB1      -0.127000
     19 C10         16.1280    23.3870    64.8150 c3       201 AB1       0.036700
     20 C11         15.1720    22.6790    63.8600 c        201 AB1       0.630100
     21 C12         14.7810    20.5850    62.6100 c3       201 AB1       0.098700
     22 C13         15.3750    24.1300    65.9160 c3       201 AB1      -0.059700
     23 C14         14.3350    23.2350    66.5940 c3       201 AB1      -0.092100
     24 C15         16.3830    24.6310    66.9550 c3       201 AB1      -0.092100
     25 C16         15.4380    23.5380    59.3560 ca       201 AB1      -0.137000
     26 C17         16.7550    23.9730    59.4940 ca       201 AB1      -0.137000
     27 C18         17.6690    23.2300    60.2320 ca       201 AB1      -0.137000
     28 C19         17.2960    22.0360    60.8350 ca       201 AB1      -0.125500
     29 C20         15.9600    21.6260    60.7470 ca       201 AB1      -0.080300
     30 C21         15.0720    22.3430    59.9530 ca       201 AB1      -0.125500
     31 C22         15.5810    20.4230    61.3120 c3       201 AB1      -0.047100
     32 C23         14.5680    19.1860    63.2050 c3       201 AB1      -0.123400
     33 C24         13.9460    19.1800    64.5920 c3       201 AB1       0.129100
     34 C25         12.4690    19.5920    64.6270 c3       201 AB1       0.065700
     35 C26         11.0070    19.2440    62.6910 c        201 AB1       0.664100
     36 C27          9.9170    18.3650    62.0870 c3       201 AB1       0.053400
     37 C28          9.1260    16.2120    62.0000 ca       201 AB1       0.078100
     38 C29         11.9630    19.4500    66.0720 c3       201 AB1      -0.045100
     39 C30          9.2640    15.6780    60.7300 ca       201 AB1      -0.075300
     40 C31          8.2500    14.8710    60.2270 ca       201 AB1      -0.129000
     41 C32          7.1640    14.5910    61.0410 ca       201 AB1      -0.122000
     42 C33          7.0400    15.0950    62.3340 ca       201 AB1      -0.129000
     43 C34          8.0270    15.9710    62.8010 ca       201 AB1      -0.075300
     44 C35          7.9130    16.5300    64.0740 c3       201 AB1      -0.056300
     45 C36         10.4830    15.8300    60.0760 c3       201 AB1      -0.056300
     46 C37         17.4410    26.6700    63.4850 c3       201 AB1      -0.095400
     47 H01         18.6740    26.2880    61.7880 h1       201 AB1       0.044700
     48 H02         19.5440    26.9630    63.2050 h1       201 AB1       0.044700
     49 H03         15.5230    25.7590    63.8290 h1       201 AB1       0.056700
     50 H04         16.3190    25.2500    62.3130 h1       201 AB1       0.056700
     51 H05         20.0830    24.5620    63.0190 hn       201 AB1       0.323500
     52 H06         16.3950    21.0760    63.9160 hn       201 AB1       0.336500
     53 H07         11.6640    17.7500    63.9000 hn       201 AB1       0.323500
     54 H08         14.2870    17.2350    64.4410 ho       201 AB1       0.400000
     55 H09          9.9890    17.8070    66.6580 ha       201 AB1       0.143500
     56 H10          7.6180    18.4350    66.9280 ha       201 AB1       0.129000
     57 H11          6.8680    20.7530    66.5000 ha       201 AB1       0.128000
     58 H12          8.5690    22.5240    66.0410 ha       201 AB1       0.129000
     59 H13         10.9480    21.8910    65.8000 ha       201 AB1       0.143500
     60 H14         16.7420    22.6330    65.3070 h1       201 AB1       0.102700
     61 H15         13.8110    21.0490    62.4340 h1       201 AB1       0.108700
     62 H16         14.8440    24.9680    65.4650 hc       201 AB1       0.070700
     63 H17         13.4150    23.2420    66.0100 hc       201 AB1       0.039867
     64 H18         14.7170    22.2160    66.6570 hc       201 AB1       0.039867
     65 H19         14.1310    23.6100    67.5970 hc       201 AB1       0.039867
     66 H20         17.2530    25.0450    66.4460 hc       201 AB1       0.039867
     67 H21         15.9200    25.4040    67.5680 hc       201 AB1       0.039867
     68 H22         16.6950    23.8010    67.5890 hc       201 AB1       0.039867
     69 H23         14.7130    24.1240    58.7910 ha       201 AB1       0.128500
     70 H24         17.0700    24.9020    59.0200 ha       201 AB1       0.127000
     71 H25         18.6920    23.5890    60.3390 ha       201 AB1       0.128500
     72 H26         18.0290    21.4300    61.3670 ha       201 AB1       0.148000
     73 H27         14.0650    21.9560    59.7970 ha       201 AB1       0.148000
     74 H28         14.9320    19.9210    60.5950 hc       201 AB1       0.057200
     75 H29         16.4790    19.8440    61.5290 hc       201 AB1       0.057200
     76 H30         15.5570    18.7380    63.3060 hc       201 AB1       0.054700
     77 H31         13.9150    18.6260    62.5360 hc       201 AB1       0.054700
     78 H32         14.4870    19.9240    65.1760 h1       201 AB1       0.082700
     79 H33         12.3600    20.6250    64.2950 h1       201 AB1       0.114700
     80 H34          9.9450    18.4640    61.0020 h1       201 AB1       0.070700
     81 H35          8.9460    18.6830    62.4670 h1       201 AB1       0.070700
     82 H36         12.0570    18.4040    66.3620 hc       201 AB1       0.062200
     83 H37         12.5600    20.0910    66.7200 hc       201 AB1       0.062200
     84 H38          8.3080    14.4680    59.2160 ha       201 AB1       0.136000
     85 H39          6.3730    13.9490    60.6530 ha       201 AB1       0.135000
     86 H40          6.1970    14.8150    62.9650 ha       201 AB1       0.136000
     87 H41          6.8590    16.6400    64.3290 hc       201 AB1       0.050200
     88 H42          8.3970    15.8790    64.8020 hc       201 AB1       0.050200
     89 H43          8.3930    17.5090    64.0860 hc       201 AB1       0.050200
     90 H44         11.2560    15.2870    60.6200 hc       201 AB1       0.050200
     91 H45         10.4050    15.4330    59.0640 hc       201 AB1       0.050200
     92 H46         10.7440    16.8880    60.0330 hc       201 AB1       0.050200
     93 H47         17.0380    27.5370    62.9610 hc       201 AB1       0.062700
     94 H48         17.5800    26.9280    64.5350 hc       201 AB1       0.062700
@<TRIPOS>BOND
     1     1     5 1   
     2     1    46 1   
     3     1    47 1   
     4     1    48 1   
     5     2     4 1   
     6     2     7 1   
     7     2    19 1   
     8     3     7 2   
     9     4    46 1   
    10     4    49 1   
    11     4    50 1   
    12     5     7 1   
    13     5    51 1   
    14     6    20 2   
    15     8    20 1   
    16     8    21 1   
    17     8    52 1   
    18     9    36 1   
    19     9    37 1   
    20    10    13 ar  
    21    10    18 ar  
    22    10    38 1   
    23    11    34 1   
    24    11    35 1   
    25    11    53 1   
    26    12    33 1   
    27    12    54 1   
    28    13    15 ar  
    29    13    55 1   
    30    14    35 2   
    31    15    16 ar  
    32    15    56 1   
    33    16    17 ar  
    34    16    57 1   
    35    17    18 ar  
    36    17    58 1   
    37    18    59 1   
    38    19    20 1   
    39    19    22 1   
    40    19    60 1   
    41    21    31 1   
    42    21    32 1   
    43    21    61 1   
    44    22    23 1   
    45    22    24 1   
    46    22    62 1   
    47    23    63 1   
    48    23    64 1   
    49    23    65 1   
    50    24    66 1   
    51    24    67 1   
    52    24    68 1   
    53    25    26 ar  
    54    25    30 ar  
    55    25    69 1   
    56    26    27 ar  
    57    26    70 1   
    58    27    28 ar  
    59    27    71 1   
    60    28    29 ar  
    61    28    72 1   
    62    29    30 ar  
    63    29    31 1   
    64    30    73 1   
    65    31    74 1   
    66    31    75 1   
    67    32    33 1   
    68    32    76 1   
    69    32    77 1   
    70    33    34 1   
    71    33    78 1   
    72    34    38 1   
    73    34    79 1   
    74    35    36 1   
    75    36    80 1   
    76    36    81 1   
    77    37    39 ar  
    78    37    43 ar  
    79    38    82 1   
    80    38    83 1   
    81    39    40 ar  
    82    39    45 1   
    83    40    41 ar  
    84    40    84 1   
    85    41    42 ar  
    86    41    85 1   
    87    42    43 ar  
    88    42    86 1   
    89    43    44 1   
    90    44    87 1   
    91    44    88 1   
    92    44    89 1   
    93    45    90 1   
    94    45    91 1   
    95    45    92 1   
    96    46    93 1   
    97    46    94 1   
@<TRIPOS>SUBSTRUCTURE
     1 AB1         1 TEMP              0 ****  ****    0 ROOT
