REMARK  Name = /web/media/ligands/5MTQ_ligand.pdb
REMARK  6 active torsions:
REMARK  status: ('A' for Active; 'I' for Inactive)
REMARK    1  A    between atoms: C_2  and  C_3
REMARK    2  A    between atoms: C_8  and  O_9
REMARK    3  A    between atoms: O_9  and  C_10
REMARK    4  A    between atoms: C_16  and  C_17
REMARK    5  A    between atoms: C_17  and  N_18
REMARK    6  A    between atoms: C_22  and  C_23
REMARK                            x       y       z     vdW  Elec       q    Type
REMARK                         _______ _______ _______ _____ _____    ______ ____
ROOT
ATOM      1  C   UNL     1      10.672  -3.595  51.403  0.00  0.00    +0.184 A 
ATOM      2  C   UNL     1      11.608  -3.626  50.385  0.00  0.00    +0.041 A 
ATOM      3  C   UNL     1      11.817  -4.815  49.700  0.00  0.00    +0.001 A 
ATOM      4  C   UNL     1      11.115  -5.958  49.989  0.00  0.00    +0.006 A 
ATOM      5  C   UNL     1      10.163  -5.914  50.978  0.00  0.00    +0.043 A 
ATOM      6  C   UNL     1       9.925  -4.749  51.678  0.00  0.00    +0.230 A 
ATOM      7  O   UNL     1       9.006  -4.710  52.657  0.00  0.00    -0.283 OA
ENDROOT
BRANCH   1   8
ATOM      8  O   UNL     1      10.428  -2.440  52.108  0.00  0.00    -0.450 OA
BRANCH   8  10
ATOM      9  C   UNL     1      10.507  -1.277  54.149  0.00  0.00    +0.103 A 
ATOM     10  C   UNL     1      10.899  -2.369  53.378  0.00  0.00    +0.155 A 
ATOM     11  C   UNL     1      11.753  -3.315  53.901  0.00  0.00    +0.038 A 
ATOM     12  C   UNL     1      12.199  -3.170  55.213  0.00  0.00    +0.003 A 
ATOM     13  C   UNL     1      11.792  -2.111  55.966  0.00  0.00    +0.001 A 
ATOM     14  C   UNL     1      10.948  -1.179  55.434  0.00  0.00    +0.013 A 
BRANCH   9  16
ATOM     15  N   UNL     1       8.956   0.550  53.331  0.00  0.00    -0.191 NA
ATOM     16  C   UNL     1       9.668  -0.273  53.713  0.00  0.00    +0.103 C 
ENDBRANCH   9  16
ENDBRANCH   8  10
ENDBRANCH   1   8
BRANCH   4  17
ATOM     17  C   UNL     1      11.319  -7.118  49.262  0.00  0.00    +0.156 C 
BRANCH  17  18
ATOM     18  N   UNL     1      12.590  -7.713  49.717  0.00  0.00    -0.226 N 
ATOM     19  N   UNL     1      13.649  -7.375  49.247  0.00  0.00    -0.064 NA
ATOM     20  N   UNL     1      14.573  -7.950  49.736  0.00  0.00    -0.133 NA
ATOM     21  C   UNL     1      14.096  -8.772  50.638  0.00  0.00    +0.100 A 
ATOM     22  C   UNL     1      12.797  -8.643  50.633  0.00  0.00    +0.114 A 
BRANCH  21  23
ATOM     23  C   UNL     1      14.945  -9.634  51.479  0.00  0.00    +0.044 C 
ATOM     24  C   UNL     1      16.267  -9.772  50.723  0.00  0.00    +0.006 C 
ATOM     25  C   UNL     1      16.897 -11.020  51.095  0.00  0.00    +0.000 C 
ATOM     26  C   UNL     1      16.028 -12.189  50.515  0.00  0.00    +0.000 C 
ATOM     27  C   UNL     1      14.556 -11.882  50.488  0.00  0.00    +0.000 C 
ATOM     28  C   UNL     1      14.257 -10.998  51.684  0.00  0.00    +0.006 C 
ENDBRANCH  21  23
ENDBRANCH  17  18
ENDBRANCH   4  17
TORSDOF 6
