@<TRIPOS>MOLECULE
P4A
   38    40     1     0     0
SMALL
bcc


@<TRIPOS>ATOM
      1 N1          63.4430    36.0480    22.1570 na       301 P4A      -0.014600
      2 N2          63.2220    34.9920    23.0440 nc       301 P4A      -0.495800
      3 C3          64.0300    35.1520    24.0840 cd       301 P4A       0.347800
      4 C4          64.7570    36.3780    23.9040 cd       301 P4A      -0.178300
      5 C5          64.3640    36.8890    22.6890 cc       301 P4A      -0.094600
      6 C6          64.0860    34.2760    25.2830 ca       301 P4A      -0.226500
      7 C7          65.7350    36.9840    24.8710 ca       301 P4A      -0.039000
      8 C8          64.8470    38.1530    22.0170 c3       301 P4A      -0.039800
      9 C12         67.1070    37.0390    24.5330 ca       301 P4A      -0.087000
     10 C13         68.0280    37.5920    25.4160 ca       301 P4A      -0.179500
     11 C14         67.6260    38.0630    26.6740 ca       301 P4A       0.124100
     12 C15         66.2640    37.9920    27.0340 ca       301 P4A      -0.179500
     13 C16         65.3290    37.4280    26.1510 ca       301 P4A      -0.087000
     14 C21         62.8820    33.8680    25.9130 ca       301 P4A       0.176100
     15 C22         62.9200    33.0990    27.0780 ca       301 P4A      -0.196000
     16 C23         64.1620    32.6860    27.5810 ca       301 P4A       0.160100
     17 C24         65.3590    33.0710    26.9480 ca       301 P4A      -0.252000
     18 C25         65.3280    33.8520    25.8060 ca       301 P4A      -0.028000
     19 O29         64.2330    31.9450    28.7140 oh       301 P4A      -0.495100
     20 O30         61.6830    34.2380    25.3980 oh       301 P4A      -0.497100
     21 O33         68.6050    38.6090    27.4710 os       301 P4A      -0.327900
     22 C34         68.3020    39.1960    28.7430 c3       301 P4A       0.113700
     23 H01         62.9890    36.1660    21.2620 hn       301 P4A       0.323700
     24 H02         65.8430    37.9880    21.6070 hc       301 P4A       0.057700
     25 H03         64.1630    38.4210    21.2120 hc       301 P4A       0.057700
     26 H04         64.8840    38.9620    22.7470 hc       301 P4A       0.057700
     27 H05         67.4450    36.6450    23.5740 ha       301 P4A       0.138500
     28 H06         69.0770    37.6600    25.1260 ha       301 P4A       0.144000
     29 H07         65.9360    38.3760    28.0000 ha       301 P4A       0.144000
     30 H08         64.2860    37.3320    26.4530 ha       301 P4A       0.138500
     31 H09         61.9970    32.8240    27.5890 ha       301 P4A       0.167000
     32 H10         66.3160    32.7520    27.3600 ha       301 P4A       0.136000
     33 H11         66.2570    34.1380    25.3130 ha       301 P4A       0.143000
     34 H12         64.8050    31.1880    28.5670 ho       301 P4A       0.421000
     35 H13         61.3560    33.5460    24.8190 ho       301 P4A       0.432000
     36 H14         67.2660    38.9800    29.0050 h1       301 P4A       0.044700
     37 H15         68.9630    38.7790    29.5030 h1       301 P4A       0.044700
     38 H16         68.4450    40.2750    28.6890 h1       301 P4A       0.044700
@<TRIPOS>BOND
     1     1     2 1   
     2     1     5 1   
     3     1    23 1   
     4     2     3 2   
     5     3     4 1   
     6     3     6 1   
     7     4     5 2   
     8     4     7 1   
     9     5     8 1   
    10     6    14 ar  
    11     6    18 ar  
    12     7     9 ar  
    13     7    13 ar  
    14     8    24 1   
    15     8    25 1   
    16     8    26 1   
    17     9    10 ar  
    18     9    27 1   
    19    10    11 ar  
    20    10    28 1   
    21    11    12 ar  
    22    11    21 1   
    23    12    13 ar  
    24    12    29 1   
    25    13    30 1   
    26    14    15 ar  
    27    14    20 1   
    28    15    16 ar  
    29    15    31 1   
    30    16    17 ar  
    31    16    19 1   
    32    17    18 ar  
    33    17    32 1   
    34    18    33 1   
    35    19    34 1   
    36    20    35 1   
    37    21    22 1   
    38    22    36 1   
    39    22    37 1   
    40    22    38 1   
@<TRIPOS>SUBSTRUCTURE
     1 P4A         1 TEMP              0 ****  ****    0 ROOT
