@<TRIPOS>MOLECULE
P4A
   38    40     1     0     0
SMALL
bcc


@<TRIPOS>ATOM
      1 H12         64.8050    31.1880    28.5670 ho         0 P4A       0.421000
      2 H11         66.2570    34.1380    25.3130 ha         0 P4A       0.143000
      3 H16         68.4450    40.2750    28.6890 h1         0 P4A       0.044700
      4 H15         68.9630    38.7790    29.5030 h1         0 P4A       0.044700
      5 H02         65.8430    37.9880    21.6070 hc         0 P4A       0.057700
      6 H01         62.9890    36.1660    21.2620 hn         0 P4A       0.323700
      7 H05         67.4450    36.6450    23.5740 ha         0 P4A       0.138500
      8 H04         64.8840    38.9620    22.7470 hc         0 P4A       0.057700
      9 H03         64.1630    38.4210    21.2120 hc         0 P4A       0.057700
     10 H06         69.0770    37.6600    25.1260 ha         0 P4A       0.144000
     11 H09         61.9970    32.8240    27.5890 ha         0 P4A       0.167000
     12 H08         64.2860    37.3320    26.4530 ha         0 P4A       0.138500
     13 H07         65.9360    38.3760    28.0000 ha         0 P4A       0.144000
     14 H10         66.3160    32.7520    27.3600 ha         0 P4A       0.136000
     15 H14         67.2660    38.9800    29.0050 h1         0 P4A       0.044700
     16 H13         61.3560    33.5460    24.8190 ho         0 P4A       0.432000
     17 N           63.4430    36.0480    22.1570 na         0 P4A      -0.014600
     18 N1          63.2220    34.9920    23.0440 nc         0 P4A      -0.495800
     19 C           64.0300    35.1520    24.0840 cd         0 P4A       0.347800
     20 C1          64.7570    36.3780    23.9040 cd         0 P4A      -0.178300
     21 C2          64.3640    36.8890    22.6890 cc         0 P4A      -0.094600
     22 C3          64.0860    34.2760    25.2830 ca         0 P4A      -0.226500
     23 C4          65.7350    36.9840    24.8710 ca         0 P4A      -0.039000
     24 C5          64.8470    38.1530    22.0170 c3         0 P4A      -0.039800
     25 C6          67.1070    37.0390    24.5330 ca         0 P4A      -0.087000
     26 C7          68.0280    37.5920    25.4160 ca         0 P4A      -0.179500
     27 C8          67.6260    38.0630    26.6740 ca         0 P4A       0.124100
     28 C9          66.2640    37.9920    27.0340 ca         0 P4A      -0.179500
     29 C10         65.3290    37.4280    26.1510 ca         0 P4A      -0.087000
     30 C11         62.8820    33.8680    25.9130 ca         0 P4A       0.176100
     31 C12         62.9200    33.0990    27.0780 ca         0 P4A      -0.196000
     32 C13         64.1620    32.6860    27.5810 ca         0 P4A       0.160100
     33 C14         65.3590    33.0710    26.9480 ca         0 P4A      -0.252000
     34 C15         65.3280    33.8520    25.8060 ca         0 P4A      -0.028000
     35 O           64.2330    31.9450    28.7140 oh         0 P4A      -0.495100
     36 O1          61.6830    34.2380    25.3980 oh         0 P4A      -0.497100
     37 O2          68.6050    38.6090    27.4710 os         0 P4A      -0.327900
     38 C16         68.3020    39.1960    28.7430 c3         0 P4A       0.113700
@<TRIPOS>BOND
     1     1    35 1   
     2     2    34 1   
     3     3    38 1   
     4     4    38 1   
     5     5    24 1   
     6     6    17 1   
     7     7    25 1   
     8     8    24 1   
     9     9    24 1   
    10    10    26 1   
    11    11    31 1   
    12    12    29 1   
    13    13    28 1   
    14    14    33 1   
    15    15    38 1   
    16    16    36 1   
    17    17    18 1   
    18    17    21 1   
    19    18    19 2   
    20    19    20 1   
    21    19    22 1   
    22    20    21 2   
    23    20    23 1   
    24    21    24 1   
    25    22    30 ar  
    26    22    34 ar  
    27    23    25 ar  
    28    23    29 ar  
    29    25    26 ar  
    30    26    27 ar  
    31    27    28 ar  
    32    27    37 1   
    33    28    29 ar  
    34    30    31 ar  
    35    30    36 1   
    36    31    32 ar  
    37    32    33 ar  
    38    32    35 1   
    39    33    34 ar  
    40    37    38 1   
@<TRIPOS>SUBSTRUCTURE
     1 P4A         1 TEMP              0 ****  ****    0 ROOT
