@<TRIPOS>MOLECULE
/web/media/ligands/5LQ9_ligand.pdb
 37 42 0 0 0
SMALL
GASTEIGER

@<TRIPOS>ATOM
      1 C          12.5960   14.2870   27.8290 C.ar    1  UNL1        0.0001
      2 C          13.2460   14.0870   26.6270 C.ar    1  UNL1        0.0015
      3 C           4.8710   15.3240   26.1120 C.ar    1  UNL1        0.0015
      4 C          11.2180   14.3310   27.8560 C.ar    1  UNL1        0.0015
      5 C           6.2380   15.1780   26.1190 C.ar    1  UNL1        0.0002
      6 C           0.5020   12.4870   24.0970 C.ar    1  UNL1        0.0075
      7 C          12.5050   13.9290   25.4740 C.ar    1  UNL1        0.0191
      8 C           4.0550   14.3890   25.5120 C.ar    1  UNL1        0.0192
      9 C           1.8400   12.7650   23.9040 C.ar    1  UNL1        0.0194
     10 C           9.0980   14.2250   26.7380 C.ar    1  UNL1        0.0030
     11 C           2.4140   10.7240   25.0410 C.ar    1  UNL1        0.0354
     12 C           9.0930   13.8820   24.4230 C.ar    1  UNL1        0.0988
     13 C          10.4830   14.1790   26.6970 C.ar    1  UNL1        0.0177
     14 C           6.0830   13.1570   24.9360 C.ar    1  UNL1        0.0330
     15 C           6.8970   14.1150   25.5390 C.ar    1  UNL1        0.0041
     16 C           8.3600   14.0630   25.5740 C.ar    1  UNL1        0.0193
     17 C           0.1330   11.3440   24.7760 C.ar    1  UNL1        0.0716
     18 C          11.1210   13.9750   25.4840 C.ar    1  UNL1        0.0813
     19 C           4.7010   13.3140   24.9350 C.ar    1  UNL1        0.0839
     20 C           2.7910   11.8780   24.3780 C.ar    1  UNL1        0.0841
     21 C           1.0720   10.4400   25.2610 C.ar    1  UNL1        0.0712
     22 C           6.2700   11.9270   24.2490 C.ar    1  UNL1        0.0807
     23 C          -1.3100   11.0790   25.0200 C.2     1  UNL1        0.2854
     24 C           2.0680    8.5760   27.7690 C.3     1  UNL1        0.0242
     25 C           0.6470    6.9710   26.5550 C.3     1  UNL1        0.0242
     26 C           2.8610    7.4230   28.3570 C.3     1  UNL1        0.0346
     27 C           1.3990    5.8190   27.2130 C.3     1  UNL1        0.0346
     28 C           1.5080    8.2320   26.4010 C.3     1  UNL1        0.0926
     29 C           1.9780    6.2050   28.5600 C.3     1  UNL1        0.1521
     30 C           7.5370   11.2230   23.9390 C.3     1  UNL1        0.0540
     31 N          10.4290   13.8270   24.3440 N.ar    1  UNL1       -0.2438
     32 N           5.1110   11.3730   23.8670 N.ar    1  UNL1       -0.1695
     33 N           4.1590   12.2310   24.2810 N.ar    1  UNL1       -0.2299
     34 N          -2.2120   11.5000   24.0760 N.am    1  UNL1       -0.0837
     35 N           0.5930    9.2900   25.9520 N.pl3   1  UNL1       -0.2392
     36 O          -1.6240   10.5480   26.0780 O.2     1  UNL1       -0.2666
     37 O           2.7960    5.1220   29.0110 O.3     1  UNL1       -0.2231
@<TRIPOS>BOND
     1     1     4   ar
     2     2     1   ar
     3     3     5   ar
     4     6    17   ar
     5     7    18   ar
     6     7     2   ar
     7     8     3   ar
     8     9     6   ar
     9     9    20   ar
    10    11    21   ar
    11    12    16   ar
    12    13    10   ar
    13    13     4   ar
    14    14    15   ar
    15    15    16    1
    16    15     5   ar
    17    16    10   ar
    18    17    23    1
    19    17    21   ar
    20    18    13   ar
    21    19    14   ar
    22    19     8   ar
    23    20    11   ar
    24    21    35    1
    25    22    14   ar
    26    23    36    2
    27    24    26    1
    28    25    27    1
    29    26    29    1
    30    27    29    1
    31    28    35    1
    32    28    25    1
    33    28    24    1
    34    29    37    1
    35    30    22    1
    36    31    12   ar
    37    31    18   ar
    38    32    22   ar
    39    32    33   ar
    40    33    20    1
    41    33    19   ar
    42    34    23   am
