@<TRIPOS>MOLECULE
9R8
   62    66     1     0     0
SMALL
bcc


@<TRIPOS>ATOM
      1 H24         72.6640    33.3620    21.9790 ha         0 9R8       0.131000
      2 H14         69.7540    38.1050    27.7920 h1         0 9R8       0.048700
      3 H10         72.7550    28.7830    23.0390 hc         0 9R8       0.044700
      4 H03         71.0940    32.7910    27.0160 hc         0 9R8       0.062700
      5 H02         63.9800    33.4960    23.3630 ho         0 9R8       0.457000
      6 H01         64.6680    32.9150    26.1720 ha         0 9R8       0.162000
      7 H05         71.4290    34.4080    23.8670 ha         0 9R8       0.128000
      8 H12         66.3920    37.1390    24.5630 ha         0 9R8       0.142000
      9 H11         67.8460    38.3610    26.1520 ha         0 9R8       0.140000
     10 H06         73.2940    30.9660    22.0730 ha         0 9R8       0.131000
     11 H09         71.8740    28.6570    24.5800 hc         0 9R8       0.044700
     12 H08         73.6020    29.0810    24.5750 hc         0 9R8       0.044700
     13 H19         72.7690    40.0910    26.2030 h1         0 9R8       0.057700
     14 H07         71.3200    30.6070    25.8870 ha         0 9R8       0.142000
     15 H04         70.7110    34.2910    26.0220 hc         0 9R8       0.062700
     16 H13         69.7660    36.4350    21.9540 ha         0 9R8       0.142000
     17 H28         66.5500    36.0200    20.1720 h1         0 9R8       0.050033
     18 H15         68.9630    39.5420    27.0670 h1         0 9R8       0.048700
     19 H18         73.7740    38.8030    26.8590 h1         0 9R8       0.057700
     20 H17         70.8700    40.9360    27.6110 h1         0 9R8       0.057700
     21 H16         70.4660    40.0370    29.0790 h1         0 9R8       0.057700
     22 H27         67.9020    37.1210    20.5330 h1         0 9R8       0.050033
     23 H22         68.8570    34.0780    23.6280 ha         0 9R8       0.151000
     24 H21         71.8540    37.1820    26.5800 h1         0 9R8       0.048700
     25 H20         72.2860    37.9030    25.0330 h1         0 9R8       0.048700
     26 H23         66.6090    32.1050    28.1180 hn         0 9R8       0.317700
     27 H26         66.2430    37.5670    20.9960 h1         0 9R8       0.050033
     28 H25         71.2010    37.6670    23.5450 ha         0 9R8       0.140000
     29 C           66.6840    34.1930    23.6990 ca         0 9R8      -0.243600
     30 C1          65.5130    33.8560    24.4300 ca         0 9R8       0.212100
     31 C2          65.5760    33.2100    25.6460 ca         0 9R8      -0.198000
     32 O           64.3100    34.2050    23.9200 oh         0 9R8      -0.506100
     33 C3          68.0220    33.3020    25.4770 ca         0 9R8      -0.254900
     34 C4          66.8430    32.9430    26.1860 ca         0 9R8      -0.000200
     35 C5          69.1230    32.9340    26.3620 cc         0 9R8       0.377900
     36 C6          70.5960    33.2140    26.1430 c3         0 9R8      -0.042400
     37 C7          71.2560    32.5520    24.9630 ca         0 9R8      -0.079300
     38 C8          71.6630    33.3440    23.8870 ca         0 9R8      -0.127000
     39 C9          72.7120    31.4120    22.8800 ca         0 9R8      -0.128000
     40 C10         71.5980    31.2090    25.0220 ca         0 9R8      -0.114000
     41 C11         72.6570    29.1930    24.0440 c3         0 9R8      -0.053800
     42 C12         68.2730    37.9130    25.2540 ca         0 9R8      -0.161500
     43 C13         67.4530    37.2510    24.3420 ca         0 9R8      -0.110000
     44 C14         69.3420    36.8510    22.8680 ca         0 9R8      -0.110000
     45 N           70.5180    38.6870    25.9200 nh         0 9R8      -0.631000
     46 C15         69.9100    39.0290    27.2350 c3         0 9R8       0.149300
     47 C16         70.8360    39.9420    28.0580 c3         0 9R8       0.123900
     48 C17         72.7470    39.1540    26.7600 c3         0 9R8       0.123900
     49 C18         71.8790    38.1170    26.0210 c3         0 9R8       0.149300
     50 C19         67.9540    33.8790    24.2060 ca         0 9R8       0.017000
     51 C20         66.5390    34.8760    22.3910 c          0 9R8       0.686700
     52 O1          65.8330    34.3380    21.5410 o          0 9R8      -0.629100
     53 N1          67.2300    32.4350    27.3930 na         0 9R8      -0.016100
     54 N2          68.6240    32.4460    27.4610 nd         0 9R8      -0.517100
     55 C21         72.3030    30.6380    23.9600 ca         0 9R8      -0.077300
     56 C22         72.3730    32.7580    22.8380 ca         0 9R8      -0.128000
     57 C23         67.9650    36.7250    23.1430 ca         0 9R8       0.004600
     58 C24         69.6500    37.9990    25.0090 ca         0 9R8       0.140600
     59 C25         70.1480    37.5150    23.7830 ca         0 9R8      -0.161500
     60 N3          67.1310    36.0840    22.1910 n          0 9R8      -0.382000
     61 C26         66.9450    36.7400    20.8890 c3         0 9R8       0.082300
     62 O2          72.1450    39.3590    28.0530 os         0 9R8      -0.411600
@<TRIPOS>BOND
     1     1    56 1   
     2     2    46 1   
     3     3    41 1   
     4     4    36 1   
     5     5    32 1   
     6     6    31 1   
     7     7    38 1   
     8     8    43 1   
     9     9    42 1   
    10    10    39 1   
    11    11    41 1   
    12    12    41 1   
    13    13    48 1   
    14    14    40 1   
    15    15    36 1   
    16    16    44 1   
    17    17    61 1   
    18    18    46 1   
    19    19    48 1   
    20    20    47 1   
    21    21    47 1   
    22    22    61 1   
    23    23    50 1   
    24    24    49 1   
    25    25    49 1   
    26    26    53 1   
    27    27    61 1   
    28    28    59 1   
    29    29    30 ar  
    30    29    50 ar  
    31    29    51 1   
    32    30    31 ar  
    33    30    32 1   
    34    31    34 ar  
    35    33    34 ar  
    36    33    35 1   
    37    33    50 ar  
    38    34    53 1   
    39    35    36 1   
    40    35    54 2   
    41    36    37 1   
    42    37    38 ar  
    43    37    40 ar  
    44    38    56 ar  
    45    39    55 ar  
    46    39    56 ar  
    47    40    55 ar  
    48    41    55 1   
    49    42    43 ar  
    50    42    58 ar  
    51    43    57 ar  
    52    44    57 ar  
    53    44    59 ar  
    54    45    46 1   
    55    45    49 1   
    56    45    58 1   
    57    46    47 1   
    58    47    62 1   
    59    48    49 1   
    60    48    62 1   
    61    51    52 2   
    62    51    60 1   
    63    53    54 1   
    64    57    60 1   
    65    58    59 ar  
    66    60    61 1   
@<TRIPOS>SUBSTRUCTURE
     1 9R8         1 TEMP              0 ****  ****    0 ROOT
