@<TRIPOS>MOLECULE
9R8
   62    66     1     0     0
SMALL
bcc


@<TRIPOS>ATOM
      1 C1          66.6840    34.1930    23.6990 ca       301 9R8      -0.243600
      2 C2          65.5130    33.8560    24.4300 ca       301 9R8       0.212100
      3 C3          65.5760    33.2100    25.6460 ca       301 9R8      -0.198000
      4 C4          67.9540    33.8790    24.2060 ca       301 9R8       0.017000
      5 O5          64.3100    34.2050    23.9200 oh       301 9R8      -0.506100
      6 C6          66.5390    34.8760    22.3910 c        301 9R8       0.686700
      7 O7          65.8330    34.3380    21.5410 o        301 9R8      -0.629100
      8 C8          68.0220    33.3020    25.4770 ca       301 9R8      -0.254900
      9 C9          66.8430    32.9430    26.1860 ca       301 9R8      -0.000200
     10 N10         67.2300    32.4350    27.3930 na       301 9R8      -0.016100
     11 N11         68.6240    32.4460    27.4610 nc       301 9R8      -0.517100
     12 C12         69.1230    32.9340    26.3620 cd       301 9R8       0.377900
     13 C13         70.5960    33.2140    26.1430 c3       301 9R8      -0.042400
     14 C14         71.2560    32.5520    24.9630 ca       301 9R8      -0.079300
     15 C15         71.6630    33.3440    23.8870 ca       301 9R8      -0.127000
     16 C16         72.7120    31.4120    22.8800 ca       301 9R8      -0.128000
     17 C17         72.3030    30.6380    23.9600 ca       301 9R8      -0.077300
     18 C18         72.3730    32.7580    22.8380 ca       301 9R8      -0.128000
     19 C19         71.5980    31.2090    25.0220 ca       301 9R8      -0.114000
     20 C20         72.6570    29.1930    24.0440 c3       301 9R8      -0.053800
     21 C21         68.2730    37.9130    25.2540 ca       301 9R8      -0.161500
     22 C22         67.4530    37.2510    24.3420 ca       301 9R8      -0.110000
     23 C23         67.9650    36.7250    23.1430 ca       301 9R8       0.004600
     24 C24         69.3420    36.8510    22.8680 ca       301 9R8      -0.110000
     25 C25         69.6500    37.9990    25.0090 ca       301 9R8       0.140600
     26 C26         70.1480    37.5150    23.7830 ca       301 9R8      -0.161500
     27 N27         67.1310    36.0840    22.1910 n        301 9R8      -0.382000
     28 C28         66.9450    36.7400    20.8890 c3       301 9R8       0.082300
     29 N29         70.5180    38.6870    25.9200 nh       301 9R8      -0.631000
     30 C30         69.9100    39.0290    27.2350 c3       301 9R8       0.149300
     31 C31         70.8360    39.9420    28.0580 c3       301 9R8       0.123900
     32 O32         72.1450    39.3590    28.0530 os       301 9R8      -0.411600
     33 C33         72.7470    39.1540    26.7600 c3       301 9R8       0.123900
     34 C34         71.8790    38.1170    26.0210 c3       301 9R8       0.149300
     35 H01         64.6680    32.9150    26.1720 ha       301 9R8       0.162000
     36 H02         68.8570    34.0780    23.6280 ha       301 9R8       0.151000
     37 H03         63.9800    33.4960    23.3630 ho       301 9R8       0.457000
     38 H04         66.6090    32.1050    28.1180 hn       301 9R8       0.317700
     39 H05         71.0940    32.7910    27.0160 hc       301 9R8       0.062700
     40 H06         70.7110    34.2910    26.0220 hc       301 9R8       0.062700
     41 H07         71.4290    34.4080    23.8670 ha       301 9R8       0.129000
     42 H08         73.2940    30.9660    22.0730 ha       301 9R8       0.131000
     43 H09         72.6640    33.3620    21.9790 ha       301 9R8       0.131000
     44 H10         71.3200    30.6070    25.8870 ha       301 9R8       0.142000
     45 H11         73.6020    29.0810    24.5750 hc       301 9R8       0.044700
     46 H12         71.8740    28.6570    24.5800 hc       301 9R8       0.044700
     47 H13         72.7550    28.7830    23.0390 hc       301 9R8       0.044700
     48 H14         67.8460    38.3610    26.1520 ha       301 9R8       0.140000
     49 H15         66.3920    37.1390    24.5630 ha       301 9R8       0.142000
     50 H16         69.7660    36.4350    21.9540 ha       301 9R8       0.142000
     51 H17         71.2010    37.6670    23.5450 ha       301 9R8       0.140000
     52 H18         66.2430    37.5670    20.9960 h1       301 9R8       0.050033
     53 H19         67.9020    37.1210    20.5330 h1       301 9R8       0.050033
     54 H20         66.5500    36.0200    20.1720 h1       301 9R8       0.050033
     55 H21         69.7540    38.1050    27.7920 h1       301 9R8       0.048700
     56 H22         68.9630    39.5420    27.0670 h1       301 9R8       0.048700
     57 H23         70.4660    40.0370    29.0790 h1       301 9R8       0.057700
     58 H24         70.8700    40.9360    27.6110 h1       301 9R8       0.057700
     59 H25         73.7740    38.8030    26.8590 h1       301 9R8       0.057700
     60 H26         72.7690    40.0910    26.2030 h1       301 9R8       0.057700
     61 H27         72.2860    37.9030    25.0330 h1       301 9R8       0.048700
     62 H28         71.8540    37.1820    26.5800 h1       301 9R8       0.048700
@<TRIPOS>BOND
     1     1     2 ar  
     2     1     4 ar  
     3     1     6 1   
     4     2     3 ar  
     5     2     5 1   
     6     3     9 ar  
     7     3    35 1   
     8     4     8 ar  
     9     4    36 1   
    10     5    37 1   
    11     6     7 2   
    12     6    27 1   
    13     8     9 ar  
    14     8    12 1   
    15     9    10 1   
    16    10    11 1   
    17    10    38 1   
    18    11    12 2   
    19    12    13 1   
    20    13    14 1   
    21    13    39 1   
    22    13    40 1   
    23    14    15 ar  
    24    14    19 ar  
    25    15    18 ar  
    26    15    41 1   
    27    16    17 ar  
    28    16    18 ar  
    29    16    42 1   
    30    17    19 ar  
    31    17    20 1   
    32    18    43 1   
    33    19    44 1   
    34    20    45 1   
    35    20    46 1   
    36    20    47 1   
    37    21    22 ar  
    38    21    25 ar  
    39    21    48 1   
    40    22    23 ar  
    41    22    49 1   
    42    23    24 ar  
    43    23    27 1   
    44    24    26 ar  
    45    24    50 1   
    46    25    26 ar  
    47    25    29 1   
    48    26    51 1   
    49    27    28 1   
    50    28    52 1   
    51    28    53 1   
    52    28    54 1   
    53    29    30 1   
    54    29    34 1   
    55    30    31 1   
    56    30    55 1   
    57    30    56 1   
    58    31    32 1   
    59    31    57 1   
    60    31    58 1   
    61    32    33 1   
    62    33    34 1   
    63    33    59 1   
    64    33    60 1   
    65    34    61 1   
    66    34    62 1   
@<TRIPOS>SUBSTRUCTURE
     1 9R8         1 TEMP              0 ****  ****    0 ROOT
