@<TRIPOS>MOLECULE
73Y
   54    60     1     0     0
SMALL
bcc


@<TRIPOS>ATOM
      1 C1           5.3790     9.7910    23.5900 ca      4000 73Y      -0.102000
      2 C2           7.7720     9.8160    23.8740 ca      4000 73Y      -0.127000
      3 C3           6.6090     9.1590    23.4830 ca      4000 73Y      -0.128000
      4 C4           7.7120    11.1040    24.3930 ca      4000 73Y      -0.104000
      5 C5           6.4730    11.7370    24.5270 cp      4000 73Y      -0.041000
      6 C6           5.3070    11.0810    24.1130 ca      4000 73Y      -0.103300
      7 C7           4.1450    11.9530    24.3340 c3      4000 73Y       0.190300
      8 C8           6.0740    13.0480    25.0850 cp      4000 73Y      -0.012000
      9 C9           4.6810    13.1500    24.9880 ca      4000 73Y      -0.118300
     10 C10          4.0150    14.2770    25.4620 ca      4000 73Y      -0.091000
     11 C11          4.7250    15.3060    26.0500 ca      4000 73Y      -0.133000
     12 C12          6.1020    15.2270    26.1570 ca      4000 73Y      -0.115000
     13 C13          6.7970    14.1200    25.6640 cq      4000 73Y      -0.026000
     14 N14          3.0300    11.3360    25.0670 n       4000 73Y      -0.539900
     15 C15          8.2870    14.1600    25.7090 cq      4000 73Y      -0.155300
     16 C16          0.7280     9.7560    26.4700 ca      4000 73Y      -0.133200
     17 C17         -0.4630     9.6960    27.1780 ca      4000 73Y       0.435200
     18 N18         -1.5960    10.2630    26.7360 nb      4000 73Y      -0.640000
     19 C19          0.7800    10.4600    25.2480 ca      4000 73Y      -0.014600
     20 C20         -0.3760    11.0140    24.7550 ca      4000 73Y      -0.027900
     21 C21         -1.5180    10.8560    25.5290 ca      4000 73Y       0.404800
     22 N22         -2.5480    11.3120    24.7630 na      4000 73Y      -0.378000
     23 C23         -2.0020    11.7410    23.6010 cc      4000 73Y       0.435700
     24 N24         -0.6930    11.6080    23.5450 nd      4000 73Y      -0.556100
     25 C25          2.0530    10.6440    24.4600 c       4000 73Y       0.680700
     26 O26          2.1220    10.3050    23.2800 o       4000 73Y      -0.574100
     27 C27          8.9830    14.2240    26.9080 ca      4000 73Y      -0.071000
     28 N28         10.3540    14.0370    24.4800 nb      4000 73Y      -0.658000
     29 C29          9.0370    14.0910    24.5340 ca      4000 73Y       0.424200
     30 C30         11.0520    14.0920    25.6650 ca      4000 73Y       0.391600
     31 C31         10.3950    14.2020    26.9170 ca      4000 73Y      -0.149300
     32 C32         11.1830    14.3020    28.0940 ca      4000 73Y      -0.110000
     33 C33         12.5520    14.3030    28.0200 ca      4000 73Y      -0.128000
     34 C34         13.1970    14.1950    26.7870 ca      4000 73Y      -0.123000
     35 C35         12.4710    14.0700    25.6290 ca      4000 73Y      -0.164300
     36 BR3          2.2300     8.8280    27.1710 br      4000 73Y      -0.041100
     37 H01          4.4720     9.2810    23.2660 ha      4000 73Y       0.144000
     38 H02          8.7360     9.3170    23.7730 ha      4000 73Y       0.135000
     39 H03          6.6650     8.1430    23.0910 ha      4000 73Y       0.133000
     40 H04          8.6250    11.6170    24.6940 ha      4000 73Y       0.144000
     41 H05          3.6680    12.1880    23.3820 h1      4000 73Y       0.116700
     42 H06          2.9310    14.3480    25.3690 ha      4000 73Y       0.153000
     43 H07          4.1990    16.1820    26.4300 ha      4000 73Y       0.135000
     44 H08          6.6520    16.0390    26.6320 ha      4000 73Y       0.137000
     45 H09          2.9980    11.4370    26.0710 hn      4000 73Y       0.323500
     46 H10         -0.4790     9.1670    28.1310 h4      4000 73Y       0.045100
     47 H11         -3.5260    11.3270    25.0130 hn      4000 73Y       0.323700
     48 H12         -2.5920    12.1590    22.7850 h5      4000 73Y       0.078800
     49 H13          8.4360    14.2920    27.8490 ha      4000 73Y       0.144000
     50 H14          8.4930    14.0810    23.5890 h4      4000 73Y       0.033100
     51 H15         10.6950    14.3790    29.0660 ha      4000 73Y       0.134000
     52 H16         13.1420    14.3890    28.9320 ha      4000 73Y       0.135000
     53 H17         14.2860    14.2100    26.7430 ha      4000 73Y       0.136000
     54 H18         12.9870    13.9530    24.6760 ha      4000 73Y       0.151000
@<TRIPOS>BOND
     1     1     3 ar  
     2     1     6 ar  
     3     1    37 1   
     4     2     3 ar  
     5     2     4 ar  
     6     2    38 1   
     7     3    39 1   
     8     4     5 ar  
     9     4    40 1   
    10     5     6 ar  
    11     5     8 1   
    12     6     7 1   
    13     7     9 1   
    14     7    14 1   
    15     7    41 1   
    16     8     9 ar  
    17     8    13 2   
    18     9    10 ar  
    19    10    11 ar  
    20    10    42 1   
    21    11    12 ar  
    22    11    43 1   
    23    12    13 1   
    24    12    44 1   
    25    13    15 1   
    26    14    25 1   
    27    14    45 1   
    28    15    27 1   
    29    15    29 2   
    30    16    17 ar  
    31    16    19 ar  
    32    16    36 1   
    33    17    18 ar  
    34    17    46 1   
    35    18    21 ar  
    36    19    20 ar  
    37    19    25 1   
    38    20    21 ar  
    39    20    24 1   
    40    21    22 1   
    41    22    23 1   
    42    22    47 1   
    43    23    24 2   
    44    23    48 1   
    45    25    26 2   
    46    27    31 ar  
    47    27    49 1   
    48    28    29 ar  
    49    28    30 ar  
    50    29    50 1   
    51    30    31 ar  
    52    30    35 ar  
    53    31    32 ar  
    54    32    33 ar  
    55    32    51 1   
    56    33    34 ar  
    57    33    52 1   
    58    34    35 ar  
    59    34    53 1   
    60    35    54 1   
@<TRIPOS>SUBSTRUCTURE
     1 73Y         1 TEMP              0 ****  ****    0 ROOT
