@<TRIPOS>MOLECULE
73Y
   54    60     1     0     0
SMALL
bcc


@<TRIPOS>ATOM
      1 H06          4.4720     9.2810    23.2660 ha         0 73Y       0.144000
      2 H04          4.1990    16.1820    26.4300 ha         0 73Y       0.135000
      3 H05          6.6520    16.0390    26.6320 ha         0 73Y       0.137000
      4 H11         -3.5260    11.3270    25.0130 hn         0 73Y       0.323700
      5 H08          6.6650     8.1430    23.0910 ha         0 73Y       0.133000
      6 H09          2.9980    11.4370    26.0710 hn         0 73Y       0.323500
      7 H15         10.6950    14.3790    29.0660 ha         0 73Y       0.134000
      8 H14          8.4930    14.0810    23.5890 h4         0 73Y       0.033100
      9 H01          8.6250    11.6170    24.6940 ha         0 73Y       0.144000
     10 H12         -2.5920    12.1590    22.7850 h5         0 73Y       0.078800
     11 H18         12.9870    13.9530    24.6760 ha         0 73Y       0.151000
     12 H02          3.6680    12.1880    23.3820 h1         0 73Y       0.116700
     13 H07          8.7360     9.3170    23.7730 ha         0 73Y       0.135000
     14 H17         14.2860    14.2100    26.7430 ha         0 73Y       0.136000
     15 H10         -0.4790     9.1670    28.1310 h4         0 73Y       0.045100
     16 H13          8.4360    14.2920    27.8490 ha         0 73Y       0.144000
     17 H03          2.9310    14.3480    25.3690 ha         0 73Y       0.153000
     18 H16         13.1420    14.3890    28.9320 ha         0 73Y       0.135000
     19 C            7.7120    11.1040    24.3930 ca         0 73Y      -0.104000
     20 C1           6.4730    11.7370    24.5270 cp         0 73Y      -0.041000
     21 C2           5.3070    11.0810    24.1130 ca         0 73Y      -0.103300
     22 C3           4.1450    11.9530    24.3340 c3         0 73Y       0.190300
     23 C4           6.0740    13.0480    25.0850 cp         0 73Y      -0.012000
     24 C5           4.6810    13.1500    24.9880 ca         0 73Y      -0.118300
     25 C6           4.0150    14.2770    25.4620 ca         0 73Y      -0.091000
     26 C7           4.7250    15.3060    26.0500 ca         0 73Y      -0.133000
     27 C8           6.1020    15.2270    26.1570 ca         0 73Y      -0.115000
     28 C9           6.7970    14.1200    25.6640 cq         0 73Y      -0.026000
     29 C10          8.2870    14.1600    25.7090 cq         0 73Y      -0.155300
     30 C11          5.3790     9.7910    23.5900 ca         0 73Y      -0.102000
     31 C12          7.7720     9.8160    23.8740 ca         0 73Y      -0.127000
     32 C13          6.6090     9.1590    23.4830 ca         0 73Y      -0.128000
     33 N            3.0300    11.3360    25.0670 n          0 73Y      -0.539900
     34 C14          0.7280     9.7560    26.4700 ca         0 73Y      -0.133200
     35 C15         -0.4630     9.6960    27.1780 ca         0 73Y       0.435200
     36 N1          -1.5960    10.2630    26.7360 nb         0 73Y      -0.640000
     37 C16          0.7800    10.4600    25.2480 ca         0 73Y      -0.014600
     38 C17         -0.3760    11.0140    24.7550 ca         0 73Y      -0.027900
     39 C18         -1.5180    10.8560    25.5290 ca         0 73Y       0.404800
     40 N2          -2.5480    11.3120    24.7630 na         0 73Y      -0.378000
     41 C19         -2.0020    11.7410    23.6010 cc         0 73Y       0.435700
     42 N3          -0.6930    11.6080    23.5450 nd         0 73Y      -0.556100
     43 C20          2.0530    10.6440    24.4600 c          0 73Y       0.680700
     44 O            2.1220    10.3050    23.2800 o          0 73Y      -0.574100
     45 C21          8.9830    14.2240    26.9080 ca         0 73Y      -0.071000
     46 N4          10.3540    14.0370    24.4800 nb         0 73Y      -0.658000
     47 C22          9.0370    14.0910    24.5340 ca         0 73Y       0.424200
     48 C23         11.0520    14.0920    25.6650 ca         0 73Y       0.391600
     49 C24         10.3950    14.2020    26.9170 ca         0 73Y      -0.149300
     50 C25         11.1830    14.3020    28.0940 ca         0 73Y      -0.110000
     51 C26         12.5520    14.3030    28.0200 ca         0 73Y      -0.128000
     52 C27         13.1970    14.1950    26.7870 ca         0 73Y      -0.123000
     53 C28         12.4710    14.0700    25.6290 ca         0 73Y      -0.164300
     54 Br           2.2300     8.8280    27.1710 br         0 73Y      -0.041100
@<TRIPOS>BOND
     1     1    30 1   
     2     2    26 1   
     3     3    27 1   
     4     4    40 1   
     5     5    32 1   
     6     6    33 1   
     7     7    50 1   
     8     8    47 1   
     9     9    19 1   
    10    10    41 1   
    11    11    53 1   
    12    12    22 1   
    13    13    31 1   
    14    14    52 1   
    15    15    35 1   
    16    16    45 1   
    17    17    25 1   
    18    18    51 1   
    19    19    20 ar  
    20    19    31 ar  
    21    20    21 ar  
    22    20    23 1   
    23    21    22 1   
    24    21    30 ar  
    25    22    24 1   
    26    22    33 1   
    27    23    24 ar  
    28    23    28 2   
    29    24    25 ar  
    30    25    26 ar  
    31    26    27 ar  
    32    27    28 1   
    33    28    29 1   
    34    29    45 1   
    35    29    47 2   
    36    30    32 ar  
    37    31    32 ar  
    38    33    43 1   
    39    34    35 ar  
    40    34    37 ar  
    41    34    54 1   
    42    35    36 ar  
    43    36    39 ar  
    44    37    38 ar  
    45    37    43 1   
    46    38    39 ar  
    47    38    42 1   
    48    39    40 1   
    49    40    41 1   
    50    41    42 2   
    51    43    44 2   
    52    45    49 ar  
    53    46    47 ar  
    54    46    48 ar  
    55    48    49 ar  
    56    48    53 ar  
    57    49    50 ar  
    58    50    51 ar  
    59    51    52 ar  
    60    52    53 ar  
@<TRIPOS>SUBSTRUCTURE
     1 73Y         1 TEMP              0 ****  ****    0 ROOT
