@<TRIPOS>MOLECULE
72K
   66    71     1     0     0
SMALL
bcc


@<TRIPOS>ATOM
      1 H08          2.9700    14.4920    25.4940 ha         0 72K       0.149000
      2 H28         -0.3960     9.2000    26.1370 hn         0 72K       0.438800
      3 H29          3.0080     4.5500    28.2700 ho         0 72K       0.396000
      4 H01         13.1680    14.4090    28.7490 ha         0 72K       0.136000
      5 H13          2.7390     9.4270    27.6570 hc         0 72K       0.054700
      6 H26         -1.8870    11.9540    23.2340 hn         0 72K       0.314000
      7 H27         -3.2010    11.3560    24.2220 hn         0 72K       0.314000
      8 H11          3.1770    10.0310    25.3940 ha         0 72K       0.161000
      9 H09          2.1450    13.6730    23.3840 ha         0 72K       0.149000
     10 H04         10.7030    14.4880    28.8040 ha         0 72K       0.135000
     11 H07         13.0230    13.7630    24.5290 ha         0 72K       0.151000
     12 H06         -0.2590    13.1670    23.7150 ha         0 72K       0.137000
     13 H17          3.2560     7.7310    29.3250 hc         0 72K       0.050950
     14 H05          6.8350    15.9460    26.6110 ha         0 72K       0.139000
     15 H12          8.5360    13.7740    23.4920 h4         0 72K       0.031100
     16 H03          4.4240    16.1960    26.5900 ha         0 72K       0.137000
     17 H10          8.5870    14.3890    27.6870 ha         0 72K       0.144000
     18 H02         14.3350    14.0540    26.5900 ha         0 72K       0.137000
     19 H16          0.3150     6.6520    25.5670 hc         0 72K       0.054700
     20 H15         -0.1940     7.2250    27.2000 hc         0 72K       0.054700
     21 H14          1.2430     8.8160    28.4390 hc         0 72K       0.054700
     22 H25          7.8260    11.4300    22.9090 hc         0 72K       0.058033
     23 H20          0.7110     4.9850    27.3520 hc         0 72K       0.050950
     24 H19          2.2280     5.5460    26.5600 hc         0 72K       0.050950
     25 H18          3.6740     7.1660    27.6780 hc         0 72K       0.050950
     26 H21          2.3310     8.1060    25.6980 h1         0 72K       0.063700
     27 H24          7.3980    10.1500    24.0690 hc         0 72K       0.058033
     28 H23          8.3200    11.5720    24.6120 hc         0 72K       0.058033
     29 H22          1.1900     6.4190    29.2820 h1         0 72K       0.078700
     30 C           12.5960    14.2870    27.8290 ca         0 72K      -0.127000
     31 C1          13.2460    14.0870    26.6270 ca         0 72K      -0.121000
     32 C2           4.8710    15.3240    26.1120 ca         0 72K      -0.100000
     33 C3          11.2180    14.3310    27.8560 ca         0 72K      -0.110000
     34 C4           6.2380    15.1780    26.1190 ca         0 72K      -0.149000
     35 C5           0.5020    12.4870    24.0970 ca         0 72K      -0.050000
     36 C6          12.5050    13.9290    25.4740 ca         0 72K      -0.165300
     37 C7           4.0550    14.3890    25.5120 ca         0 72K      -0.136000
     38 C8           1.8400    12.7650    23.9040 ca         0 72K      -0.214000
     39 C9           9.0980    14.2250    26.7380 ca         0 72K      -0.068000
     40 C10          2.4140    10.7240    25.0410 ca         0 72K      -0.210000
     41 C11          9.0930    13.8820    24.4230 ca         0 72K       0.426200
     42 C12         10.4830    14.1790    26.6970 ca         0 72K      -0.149300
     43 C13          6.0830    13.1570    24.9360 ca         0 72K      -0.197900
     44 C14          6.8970    14.1150    25.5390 cp         0 72K       0.029000
     45 C15          8.3600    14.0630    25.5740 cp         0 72K      -0.161300
     46 C16          0.1330    11.3440    24.7760 ca         0 72K      -0.229600
     47 C17         11.1210    13.9750    25.4840 ca         0 72K       0.394600
     48 C18          4.7010    13.3140    24.9350 ca         0 72K      -0.032200
     49 C19          2.7910    11.8780    24.3780 ca         0 72K       0.100800
     50 C20          1.0720    10.4400    25.2610 ca         0 72K       0.239600
     51 C21          6.2700    11.9270    24.2490 cc         0 72K       0.362900
     52 C22         -1.3100    11.0790    25.0200 c          0 72K       0.684700
     53 C23          2.0680     8.5760    27.7690 c3         0 72K      -0.093900
     54 C24          0.6470     6.9710    26.5550 c3         0 72K      -0.093900
     55 C25          2.8610     7.4230    28.3570 c3         0 72K      -0.109400
     56 C26          1.3990     5.8190    27.2130 c3         0 72K      -0.109400
     57 C27          1.5080     8.2320    26.4010 c3         0 72K       0.204500
     58 C28          1.9780     6.2050    28.5600 c3         0 72K       0.136100
     59 C29          7.5370    11.2230    23.9390 c3         0 72K      -0.112400
     60 N           10.4290    13.8270    24.3440 nb         0 72K      -0.658000
     61 N1           5.1110    11.3730    23.8670 nd         0 72K      -0.498100
     62 N2           4.1590    12.2310    24.2810 na         0 72K       0.143800
     63 N3          -2.2120    11.5000    24.0760 n          0 72K      -0.668000
     64 N4           0.5930     9.2900    25.9520 nh         0 72K      -0.738600
     65 O           -1.6240    10.5480    26.0780 o          0 72K      -0.635100
     66 O1           2.7960     5.1220    29.0110 oh         0 72K      -0.593800
@<TRIPOS>BOND
     1     1    37 1   
     2     2    64 1   
     3     3    66 1   
     4     4    30 1   
     5     5    53 1   
     6     6    63 1   
     7     7    63 1   
     8     8    40 1   
     9     9    38 1   
    10    10    33 1   
    11    11    36 1   
    12    12    35 1   
    13    13    55 1   
    14    14    34 1   
    15    15    41 1   
    16    16    32 1   
    17    17    39 1   
    18    18    31 1   
    19    19    54 1   
    20    20    54 1   
    21    21    53 1   
    22    22    59 1   
    23    23    56 1   
    24    24    56 1   
    25    25    55 1   
    26    26    57 1   
    27    27    59 1   
    28    28    59 1   
    29    29    58 1   
    30    30    31 ar  
    31    30    33 ar  
    32    31    36 ar  
    33    32    34 ar  
    34    32    37 ar  
    35    33    42 ar  
    36    34    44 ar  
    37    35    38 ar  
    38    35    46 ar  
    39    36    47 ar  
    40    37    48 ar  
    41    38    49 ar  
    42    39    42 ar  
    43    39    45 ar  
    44    40    49 ar  
    45    40    50 ar  
    46    41    45 ar  
    47    41    60 ar  
    48    42    47 ar  
    49    43    44 ar  
    50    43    48 ar  
    51    43    51 1   
    52    44    45 1   
    53    46    50 ar  
    54    46    52 1   
    55    47    60 ar  
    56    48    62 1   
    57    49    62 1   
    58    50    64 1   
    59    51    59 1   
    60    51    61 2   
    61    52    63 1   
    62    52    65 2   
    63    53    55 1   
    64    53    57 1   
    65    54    56 1   
    66    54    57 1   
    67    55    58 1   
    68    56    58 1   
    69    57    64 1   
    70    58    66 1   
    71    61    62 1   
@<TRIPOS>SUBSTRUCTURE
     1 72K         1 TEMP              0 ****  ****    0 ROOT
