@<TRIPOS>MOLECULE
72K
   66    71     1     0     0
SMALL
bcc


@<TRIPOS>ATOM
      1 C1           2.7910    11.8780    24.3780 ca       301 72K       0.100800
      2 C2           1.8400    12.7650    23.9040 ca       301 72K      -0.214000
      3 C3           0.5020    12.4870    24.0970 ca       301 72K      -0.050000
      4 C4           0.1330    11.3440    24.7760 ca       301 72K      -0.229600
      5 C5           1.0720    10.4400    25.2610 ca       301 72K       0.239600
      6 C6           2.4140    10.7240    25.0410 ca       301 72K      -0.210000
      7 N7           0.5930     9.2900    25.9520 nh       301 72K      -0.738600
      8 C8          -1.3100    11.0790    25.0200 c        301 72K       0.684700
      9 N9          -2.2120    11.5000    24.0760 n        301 72K      -0.668000
     10 N10          4.1590    12.2310    24.2810 na       301 72K       0.143800
     11 C11         10.4830    14.1790    26.6970 ca       301 72K      -0.149300
     12 C12         11.1210    13.9750    25.4840 ca       301 72K       0.394600
     13 C13          9.0980    14.2250    26.7380 ca       301 72K      -0.068000
     14 C14         11.2180    14.3310    27.8560 ca       301 72K      -0.110000
     15 N15         10.4290    13.8270    24.3440 nb       301 72K      -0.658000
     16 C16         12.5050    13.9290    25.4740 ca       301 72K      -0.165300
     17 C17          8.3600    14.0630    25.5740 cp       301 72K      -0.161300
     18 C18         12.5960    14.2870    27.8290 ca       301 72K      -0.127000
     19 C19          9.0930    13.8820    24.4230 ca       301 72K       0.426200
     20 C20         13.2460    14.0870    26.6270 ca       301 72K      -0.121000
     21 C21          6.8970    14.1150    25.5390 cp       301 72K       0.029000
     22 C22          4.7010    13.3140    24.9350 ca       301 72K      -0.032200
     23 C23          6.0830    13.1570    24.9360 ca       301 72K      -0.197900
     24 C24          4.0550    14.3890    25.5120 ca       301 72K      -0.136000
     25 C25          6.2700    11.9270    24.2490 cc       301 72K       0.362900
     26 N26          5.1110    11.3730    23.8670 nd       301 72K      -0.498100
     27 C27          4.8710    15.3240    26.1120 ca       301 72K      -0.100000
     28 C28          6.2380    15.1780    26.1190 ca       301 72K      -0.149000
     29 C29          1.5080     8.2320    26.4010 c3       301 72K       0.204500
     30 C30          2.0680     8.5760    27.7690 c3       301 72K      -0.093900
     31 C31          2.8610     7.4230    28.3570 c3       301 72K      -0.109400
     32 C32          1.9780     6.2050    28.5600 c3       301 72K       0.136100
     33 C33          1.3990     5.8190    27.2130 c3       301 72K      -0.109400
     34 C34          0.6470     6.9710    26.5550 c3       301 72K      -0.093900
     35 O35          2.7960     5.1220    29.0110 oh       301 72K      -0.593800
     36 C36          7.5370    11.2230    23.9390 c3       301 72K      -0.112400
     37 O37         -1.6240    10.5480    26.0780 o        301 72K      -0.635100
     38 H01          2.1450    13.6730    23.3840 ha       301 72K       0.149000
     39 H02         -0.2590    13.1670    23.7150 ha       301 72K       0.137000
     40 H03          3.1770    10.0310    25.3940 ha       301 72K       0.161000
     41 H04         -0.3960     9.2000    26.1370 hn       301 72K       0.438800
     42 H05         -3.2010    11.3560    24.2230 hn       301 72K       0.314000
     43 H06         -1.8870    11.9540    23.2340 hn       301 72K       0.314000
     44 H07          8.5870    14.3890    27.6870 ha       301 72K       0.144000
     45 H08         10.7030    14.4880    28.8040 ha       301 72K       0.135000
     46 H09         13.0230    13.7630    24.5290 ha       301 72K       0.151000
     47 H10         13.1680    14.4090    28.7490 ha       301 72K       0.136000
     48 H11          8.5360    13.7740    23.4920 h4       301 72K       0.031100
     49 H12         14.3350    14.0540    26.5900 ha       301 72K       0.137000
     50 H13          2.9700    14.4920    25.4940 ha       301 72K       0.149000
     51 H14          4.4240    16.1960    26.5900 ha       301 72K       0.137000
     52 H15          6.8350    15.9460    26.6110 ha       301 72K       0.139000
     53 H16          2.3310     8.1060    25.6980 h1       301 72K       0.063700
     54 H17          1.2310     8.7870    28.4350 hc       301 72K       0.054700
     55 H18          2.7210     9.4440    27.6760 hc       301 72K       0.054700
     56 H19          3.2560     7.7310    29.3250 hc       301 72K       0.050950
     57 H20          3.6740     7.1660    27.6780 hc       301 72K       0.050950
     58 H21          1.1900     6.4190    29.2820 h1       301 72K       0.078700
     59 H22          0.6900     5.0070    27.3750 hc       301 72K       0.050950
     60 H23          2.2120     5.5100    26.5570 hc       301 72K       0.050950
     61 H24          0.3590     6.6460    25.5550 hc       301 72K       0.054700
     62 H25         -0.2220     7.2140    27.1660 hc       301 72K       0.054700
     63 H26          3.0080     4.5500    28.2700 ho       301 72K       0.396000
     64 H27          8.3200    11.5720    24.6120 hc       301 72K       0.058033
     65 H28          7.3980    10.1500    24.0690 hc       301 72K       0.058033
     66 H29          7.8260    11.4300    22.9090 hc       301 72K       0.058033
@<TRIPOS>BOND
     1     1     2 ar  
     2     1     6 ar  
     3     1    10 1   
     4     2     3 ar  
     5     2    38 1   
     6     3     4 ar  
     7     3    39 1   
     8     4     5 ar  
     9     4     8 1   
    10     5     6 ar  
    11     5     7 1   
    12     6    40 1   
    13     7    29 1   
    14     7    41 1   
    15     8     9 1   
    16     8    37 2   
    17     9    42 1   
    18     9    43 1   
    19    10    22 1   
    20    10    26 1   
    21    11    12 ar  
    22    11    13 ar  
    23    11    14 ar  
    24    12    15 ar  
    25    12    16 ar  
    26    13    17 ar  
    27    13    44 1   
    28    14    18 ar  
    29    14    45 1   
    30    15    19 ar  
    31    16    20 ar  
    32    16    46 1   
    33    17    19 ar  
    34    17    21 1   
    35    18    20 ar  
    36    18    47 1   
    37    19    48 1   
    38    20    49 1   
    39    21    23 ar  
    40    21    28 ar  
    41    22    23 ar  
    42    22    24 ar  
    43    23    25 1   
    44    24    27 ar  
    45    24    50 1   
    46    25    26 2   
    47    25    36 1   
    48    27    28 ar  
    49    27    51 1   
    50    28    52 1   
    51    29    30 1   
    52    29    34 1   
    53    29    53 1   
    54    30    31 1   
    55    30    54 1   
    56    30    55 1   
    57    31    32 1   
    58    31    56 1   
    59    31    57 1   
    60    32    33 1   
    61    32    35 1   
    62    32    58 1   
    63    33    34 1   
    64    33    59 1   
    65    33    60 1   
    66    34    61 1   
    67    34    62 1   
    68    35    63 1   
    69    36    64 1   
    70    36    65 1   
    71    36    66 1   
@<TRIPOS>SUBSTRUCTURE
     1 72K         1 TEMP              0 ****  ****    0 ROOT
