REMARK  Name = /web/media/ligands/2VCI_ligand.pdb
REMARK  7 active torsions:
REMARK  status: ('A' for Active; 'I' for Inactive)
REMARK    1  A    between atoms: N_6  and  C_7
REMARK    2  A    between atoms: C_7  and  C_8
REMARK    3  A    between atoms: C_13  and  C_14
REMARK    4  A    between atoms: C_15  and  C_16
REMARK    5  A    between atoms: N_18  and  C_19
REMARK    6  A    between atoms: C_23  and  C_24
REMARK    7  A    between atoms: C_26  and  C_27
REMARK                            x       y       z     vdW  Elec       q    Type
REMARK                         _______ _______ _______ _____ _____    ______ ____
ROOT
ATOM      1  C   UNL     1      31.192   8.761  26.474  0.00  0.00    +0.063 A 
ATOM      2  C   UNL     1      30.381   9.876  26.129  0.00  0.00    +0.180 A 
ATOM      3  O   UNL     1      29.523  10.156  27.150  0.00  0.00    -0.353 OA
ATOM      4  N   UNL     1      29.822   9.160  28.159  0.00  0.00    -0.072 NA
ATOM      5  C   UNL     1      30.816   8.359  27.739  0.00  0.00    +0.178 A 
ENDROOT
BRANCH   2   6
ATOM      6  C   UNL     1      30.447  10.553  24.909  0.00  0.00    +0.076 A 
ATOM      7  C   UNL     1      29.347  10.902  24.102  0.00  0.00    +0.202 A 
ATOM      8  O   UNL     1      28.058  10.636  24.429  0.00  0.00    -0.286 OA
ATOM      9  C   UNL     1      29.595  11.577  22.921  0.00  0.00    +0.084 A 
ATOM     10  C   UNL     1      30.898  11.895  22.519  0.00  0.00    +0.195 A 
ATOM     11  O   UNL     1      31.136  12.534  21.348  0.00  0.00    -0.287 OA
ATOM     12  C   UNL     1      31.969  11.515  23.322  0.00  0.00    +0.017 A 
ATOM     13  C   UNL     1      31.725  10.864  24.510  0.00  0.00    +0.005 A 
BRANCH  12  14
ATOM     14  C   UNL     1      33.381  11.907  22.972  0.00  0.00    +0.025 C 
ATOM     15  C   UNL     1      33.437  13.273  23.687  0.00  0.00    +0.005 C 
ATOM     16  C   UNL     1      34.461  10.945  23.498  0.00  0.00    +0.005 C 
ENDBRANCH  12  14
ENDBRANCH   2   6
BRANCH   1  20
ATOM     17  C   UNL     1      34.097   7.199  23.899  0.00  0.00    -0.006 A 
ATOM     18  C   UNL     1      32.733   7.052  23.582  0.00  0.00    -0.003 A 
ATOM     19  C   UNL     1      31.772   7.555  24.455  0.00  0.00    -0.000 A 
ATOM     20  C   UNL     1      32.188   8.203  25.638  0.00  0.00    +0.005 A 
ATOM     21  C   UNL     1      33.558   8.341  25.953  0.00  0.00    -0.000 A 
ATOM     22  C   UNL     1      34.516   7.838  25.077  0.00  0.00    -0.003 A 
BRANCH  17  23
ATOM     23  C   UNL     1      35.146   6.638  22.949  0.00  0.00    +0.099 C 
BRANCH  23  29
ATOM     24  C   UNL     1      35.487   4.996  21.324  0.00  0.00    +0.105 C 
ATOM     25  C   UNL     1      35.986   3.560  21.079  0.00  0.00    +0.159 C 
ATOM     26  O   UNL     1      36.871   3.202  22.175  0.00  0.00    -0.351 OA
ATOM     27  C   UNL     1      36.189   3.150  23.472  0.00  0.00    +0.159 C 
ATOM     28  C   UNL     1      35.659   4.542  23.842  0.00  0.00    +0.105 C 
ATOM     29  N   UNL     1      34.957   5.202  22.705  0.00  0.00    -0.265 NA
ENDBRANCH  23  29
ENDBRANCH  17  23
ENDBRANCH   1  20
BRANCH   5  30
ATOM     30  C   UNL     1      31.467   7.214  28.518  0.00  0.00    +0.286 C 
ATOM     31  O   UNL     1      32.085   6.347  27.892  0.00  0.00    -0.267 OA
ATOM     32  N   UNL     1      31.318   7.332  29.873  0.00  0.00    -0.200 NA
BRANCH  32  33
ATOM     33  C   UNL     1      31.807   6.448  30.956  0.00  0.00    +0.116 C 
ATOM     34  C   UNL     1      33.017   5.636  30.497  0.00  0.00    +0.025 C 
ENDBRANCH  32  33
ENDBRANCH   5  30
TORSDOF 7
