REMARK  Name = /web/media/ligands/6EYA_ligand.pdb
REMARK  8 active torsions:
REMARK  status: ('A' for Active; 'I' for Inactive)
REMARK    1  A    between atoms: C_15  and  C_16
REMARK    2  A    between atoms: C_15  and  C_18
REMARK    3  A    between atoms: C_16  and  C_17
REMARK    4  A    between atoms: C_38  and  O_59
REMARK    5  A    between atoms: C_53  and  C_54
REMARK    6  A    between atoms: C_57  and  C_58
REMARK    7  A    between atoms: C_57  and  O_60
REMARK    8  A    between atoms: O_59  and  O_60
REMARK                            x       y       z     vdW  Elec       q    Type
REMARK                         _______ _______ _______ _____ _____    ______ ____
ROOT
ATOM      1  C   UNL     1      65.947  34.377  23.946  0.00  0.00    +0.000 C 
ATOM      2  C   UNL     1      67.179  33.899  24.343  0.00  0.00    +0.000 C 
ENDROOT
TORSDOF 0
REMARK  Name = /web/media/ligands/6EYA_ligand.pdb
REMARK  8 active torsions:
REMARK  status: ('A' for Active; 'I' for Inactive)
REMARK    1  A    between atoms: C_15  and  C_16
REMARK    2  A    between atoms: C_15  and  C_18
REMARK    3  A    between atoms: C_16  and  C_17
REMARK    4  A    between atoms: C_38  and  O_59
REMARK    5  A    between atoms: C_53  and  C_54
REMARK    6  A    between atoms: C_57  and  C_58
REMARK    7  A    between atoms: C_57  and  O_60
REMARK    8  A    between atoms: O_59  and  O_60
REMARK                            x       y       z     vdW  Elec       q    Type
REMARK                         _______ _______ _______ _____ _____    ______ ____
ROOT
ATOM      1  C   UNL     1      65.909  34.296  23.902  0.00  0.00    +0.000 C 
ENDROOT
TORSDOF 0
REMARK  Name = /web/media/ligands/6EYA_ligand.pdb
REMARK  8 active torsions:
REMARK  status: ('A' for Active; 'I' for Inactive)
REMARK    1  A    between atoms: C_15  and  C_16
REMARK    2  A    between atoms: C_15  and  C_18
REMARK    3  A    between atoms: C_16  and  C_17
REMARK    4  A    between atoms: C_38  and  O_59
REMARK    5  A    between atoms: C_53  and  C_54
REMARK    6  A    between atoms: C_57  and  C_58
REMARK    7  A    between atoms: C_57  and  O_60
REMARK    8  A    between atoms: O_59  and  O_60
REMARK                            x       y       z     vdW  Elec       q    Type
REMARK                         _______ _______ _______ _____ _____    ______ ____
ROOT
ATOM      1  C   UNL     1      64.754  34.034  24.645  0.00  0.00    +0.217 C 
ATOM      2  O   UNL     1      63.550  34.471  24.308  0.00  0.00    -0.217 OA
ENDROOT
TORSDOF 0
REMARK  Name = /web/media/ligands/6EYA_ligand.pdb
REMARK  8 active torsions:
REMARK  status: ('A' for Active; 'I' for Inactive)
REMARK    1  A    between atoms: C_15  and  C_16
REMARK    2  A    between atoms: C_15  and  C_18
REMARK    3  A    between atoms: C_16  and  C_17
REMARK    4  A    between atoms: C_38  and  O_59
REMARK    5  A    between atoms: C_53  and  C_54
REMARK    6  A    between atoms: C_57  and  C_58
REMARK    7  A    between atoms: C_57  and  O_60
REMARK    8  A    between atoms: O_59  and  O_60
REMARK                            x       y       z     vdW  Elec       q    Type
REMARK                         _______ _______ _______ _____ _____    ______ ____
ROOT
ATOM      1  C   UNL     1      64.778  34.100  24.742  0.00  0.00    +0.000 C 
ATOM      2  C   UNL     1      64.800  33.356  25.853  0.00  0.00    +0.000 C 
ENDROOT
TORSDOF 0
REMARK  Name = /web/media/ligands/6EYA_ligand.pdb
REMARK  8 active torsions:
REMARK  status: ('A' for Active; 'I' for Inactive)
REMARK    1  A    between atoms: C_15  and  C_16
REMARK    2  A    between atoms: C_15  and  C_18
REMARK    3  A    between atoms: C_16  and  C_17
REMARK    4  A    between atoms: C_38  and  O_59
REMARK    5  A    between atoms: C_53  and  C_54
REMARK    6  A    between atoms: C_57  and  C_58
REMARK    7  A    between atoms: C_57  and  O_60
REMARK    8  A    between atoms: O_59  and  O_60
REMARK                            x       y       z     vdW  Elec       q    Type
REMARK                         _______ _______ _______ _____ _____    ______ ____
ROOT
ATOM      1  C   UNL     1      64.908  33.538  26.001  0.00  0.00    +0.000 C 
ATOM      2  C   UNL     1      66.043  33.069  26.434  0.00  0.00    +0.000 C 
ENDROOT
TORSDOF 0
REMARK  Name = /web/media/ligands/6EYA_ligand.pdb
REMARK  8 active torsions:
REMARK  status: ('A' for Active; 'I' for Inactive)
REMARK    1  A    between atoms: C_15  and  C_16
REMARK    2  A    between atoms: C_15  and  C_18
REMARK    3  A    between atoms: C_16  and  C_17
REMARK    4  A    between atoms: C_38  and  O_59
REMARK    5  A    between atoms: C_53  and  C_54
REMARK    6  A    between atoms: C_57  and  C_58
REMARK    7  A    between atoms: C_57  and  O_60
REMARK    8  A    between atoms: O_59  and  O_60
REMARK                            x       y       z     vdW  Elec       q    Type
REMARK                         _______ _______ _______ _____ _____    ______ ____
ROOT
ATOM      1  O   HOH     1      63.546  34.318  24.097  0.00  0.00    +0.000 OA
ENDROOT
TORSDOF 0
REMARK  Name = /web/media/ligands/6EYA_ligand.pdb
REMARK  8 active torsions:
REMARK  status: ('A' for Active; 'I' for Inactive)
REMARK    1  A    between atoms: C_15  and  C_16
REMARK    2  A    between atoms: C_15  and  C_18
REMARK    3  A    between atoms: C_16  and  C_17
REMARK    4  A    between atoms: C_38  and  O_59
REMARK    5  A    between atoms: C_53  and  C_54
REMARK    6  A    between atoms: C_57  and  C_58
REMARK    7  A    between atoms: C_57  and  O_60
REMARK    8  A    between atoms: O_59  and  O_60
REMARK                            x       y       z     vdW  Elec       q    Type
REMARK                         _______ _______ _______ _____ _____    ______ ____
ROOT
ATOM      1  C   UNL     1      67.247  33.433  25.770  0.00  0.00    +0.022 C 
ATOM      2  C   UNL     1      66.177  33.146  26.450  0.00  0.00    +0.109 C 
ATOM      3  N   UNL     1      66.408  32.475  27.611  0.00  0.00    -0.131 NA
ENDROOT
TORSDOF 0
REMARK  Name = /web/media/ligands/6EYA_ligand.pdb
REMARK  8 active torsions:
REMARK  status: ('A' for Active; 'I' for Inactive)
REMARK    1  A    between atoms: C_15  and  C_16
REMARK    2  A    between atoms: C_15  and  C_18
REMARK    3  A    between atoms: C_16  and  C_17
REMARK    4  A    between atoms: C_38  and  O_59
REMARK    5  A    between atoms: C_53  and  C_54
REMARK    6  A    between atoms: C_57  and  C_58
REMARK    7  A    between atoms: C_57  and  O_60
REMARK    8  A    between atoms: O_59  and  O_60
REMARK                            x       y       z     vdW  Elec       q    Type
REMARK                         _______ _______ _______ _____ _____    ______ ____
ROOT
ATOM      1  C   UNL     1      67.316  33.334  25.617  0.00  0.00    +0.000 C 
ATOM      2  C   UNL     1      67.192  34.050  24.515  0.00  0.00    +0.000 C 
ENDROOT
TORSDOF 0
REMARK  Name = /web/media/ligands/6EYA_ligand.pdb
REMARK  8 active torsions:
REMARK  status: ('A' for Active; 'I' for Inactive)
REMARK    1  A    between atoms: C_15  and  C_16
REMARK    2  A    between atoms: C_15  and  C_18
REMARK    3  A    between atoms: C_16  and  C_17
REMARK    4  A    between atoms: C_38  and  O_59
REMARK    5  A    between atoms: C_53  and  C_54
REMARK    6  A    between atoms: C_57  and  C_58
REMARK    7  A    between atoms: C_57  and  O_60
REMARK    8  A    between atoms: O_59  and  O_60
REMARK                            x       y       z     vdW  Elec       q    Type
REMARK                         _______ _______ _______ _____ _____    ______ ____
ROOT
ATOM      1  C   UNL     1      68.335  32.976  26.634  0.00  0.00    +0.180 C 
ATOM      2  N   UNL     1      68.010  32.406  27.522  0.00  0.00    -0.180 NA
ENDROOT
TORSDOF 0
REMARK  Name = /web/media/ligands/6EYA_ligand.pdb
REMARK  8 active torsions:
REMARK  status: ('A' for Active; 'I' for Inactive)
REMARK    1  A    between atoms: C_15  and  C_16
REMARK    2  A    between atoms: C_15  and  C_18
REMARK    3  A    between atoms: C_16  and  C_17
REMARK    4  A    between atoms: C_38  and  O_59
REMARK    5  A    between atoms: C_53  and  C_54
REMARK    6  A    between atoms: C_57  and  C_58
REMARK    7  A    between atoms: C_57  and  O_60
REMARK    8  A    between atoms: O_59  and  O_60
REMARK                            x       y       z     vdW  Elec       q    Type
REMARK                         _______ _______ _______ _____ _____    ______ ____
ROOT
ATOM      1  C   UNL     1      68.461  32.839  26.375  0.00  0.00    +0.005 C 
ATOM      2  C   UNL     1      69.819  33.186  26.450  0.00  0.00    +0.027 C 
ENDROOT
BRANCH   2   3
ATOM      3  C   UNL     1      70.712  34.028  26.101  0.00  0.00    -0.022 A 
ATOM      4  C   UNL     1      70.205  35.306  25.863  0.00  0.00    -0.004 A 
ATOM      5  C   UNL     1      71.008  36.431  26.053  0.00  0.00    -0.001 A 
ATOM      6  C   UNL     1      72.321  36.279  26.473  0.00  0.00    -0.004 A 
ATOM      7  C   UNL     1      72.835  35.005  26.709  0.00  0.00    -0.022 A 
ATOM      8  C   UNL     1      74.236  34.850  27.212  0.00  0.00    +0.031 C 
ATOM      9  C   UNL     1      72.041  33.884  26.502  0.00  0.00    -0.009 A 
ENDBRANCH   2   3
BRANCH   2  10
ATOM     10  C   UNL     1      69.891  32.779  25.879  0.00  0.00    +0.031 C 
BRANCH  10  11
ATOM     11  C   UNL     1      70.498  32.573  25.255  0.00  0.00    -0.022 A 
ATOM     12  C   UNL     1      70.872  31.224  25.202  0.00  0.00    -0.009 A 
ATOM     13  C   UNL     1      71.619  30.760  24.104  0.00  0.00    -0.022 A 
ATOM     14  C   UNL     1      71.987  29.325  23.966  0.00  0.00    +0.031 C 
ATOM     15  C   UNL     1      71.990  31.601  23.075  0.00  0.00    -0.004 A 
ATOM     16  C   UNL     1      71.635  32.929  23.161  0.00  0.00    -0.001 A 
ATOM     17  C   UNL     1      70.910  33.426  24.244  0.00  0.00    -0.004 A 
ENDBRANCH  10  11
ENDBRANCH   2  10
TORSDOF 3
REMARK  Name = /web/media/ligands/6EYA_ligand.pdb
REMARK  8 active torsions:
REMARK  status: ('A' for Active; 'I' for Inactive)
REMARK    1  A    between atoms: C_15  and  C_16
REMARK    2  A    between atoms: C_15  and  C_18
REMARK    3  A    between atoms: C_16  and  C_17
REMARK    4  A    between atoms: C_38  and  O_59
REMARK    5  A    between atoms: C_53  and  C_54
REMARK    6  A    between atoms: C_57  and  C_58
REMARK    7  A    between atoms: C_57  and  O_60
REMARK    8  A    between atoms: O_59  and  O_60
REMARK                            x       y       z     vdW  Elec       q    Type
REMARK                         _______ _______ _______ _____ _____    ______ ____
ROOT
ATOM      1  C   UNL     1      69.625  37.341  24.146  0.00  0.00    +0.033 C 
ATOM      2  C   UNL     1      68.719  36.878  23.200  0.00  0.00    +0.003 C 
ATOM      3  C   UNL     1      68.350  37.300  22.668  0.00  0.00    +0.006 C 
ATOM      4  C   UNL     1      67.334  36.921  23.450  0.00  0.00    +0.043 C 
ATOM      5  C   UNL     1      66.580  37.496  24.315  0.00  0.00    +0.006 C 
ATOM      6  C   UNL     1      66.861  37.454  24.658  0.00  0.00    +0.006 C 
ATOM      7  C   UNL     1      67.414  38.290  25.093  0.00  0.00    +0.066 C 
ATOM      8  C   UNL     1      68.705  38.620  24.645  0.00  0.00    +0.185 C 
ATOM      9  O   UNL     1      69.320  39.417  25.575  0.00  0.00    -0.220 OA
ATOM     10  O   UNL     1      69.811  38.376  26.433  0.00  0.00    -0.220 OA
ATOM     11  C   UNL     1      69.150  37.853  25.355  0.00  0.00    +0.182 C 
ATOM     12  C   UNL     1      69.168  38.125  23.428  0.00  0.00    +0.003 C 
ENDROOT
BRANCH   4  13
ATOM     13  C   UNL     1      67.053  36.973  23.107  0.00  0.00    +0.095 C 
ATOM     14  N   UNL     1      66.446  36.376  22.497  0.00  0.00    -0.151 NA
ENDBRANCH   4  13
BRANCH   7  15
ATOM     15  C   UNL     1      67.770  37.897  25.613  0.00  0.00    +0.185 C 
BRANCH  15  16
ATOM     16  O   UNL     1      67.206  38.856  26.310  0.00  0.00    -0.220 OA
BRANCH  16  17
ATOM     17  O   UNL     1      67.581  38.440  26.847  0.00  0.00    -0.220 OA
BRANCH  17  18
ATOM     18  C   UNL     1      68.480  39.389  26.749  0.00  0.00    +0.182 C 
ATOM     19  C   UNL     1      68.816  39.113  27.170  0.00  0.00    +0.038 C 
ENDBRANCH  17  18
ENDBRANCH  16  17
ENDBRANCH  15  16
ENDBRANCH   7  15
TORSDOF 5
REMARK  Name = /web/media/ligands/6EYA_ligand.pdb
REMARK  8 active torsions:
REMARK  status: ('A' for Active; 'I' for Inactive)
REMARK    1  A    between atoms: C_15  and  C_16
REMARK    2  A    between atoms: C_15  and  C_18
REMARK    3  A    between atoms: C_16  and  C_17
REMARK    4  A    between atoms: C_38  and  O_59
REMARK    5  A    between atoms: C_53  and  C_54
REMARK    6  A    between atoms: C_57  and  C_58
REMARK    7  A    between atoms: C_57  and  O_60
REMARK    8  A    between atoms: O_59  and  O_60
REMARK                            x       y       z     vdW  Elec       q    Type
REMARK                         _______ _______ _______ _____ _____    ______ ____
ROOT
ATOM      1  N   UNL     1      66.219  36.195  22.280  0.00  0.00    -0.180 NA
ATOM      2  C   UNL     1      65.837  35.152  22.675  0.00  0.00    +0.180 C 
ENDROOT
TORSDOF 0
REMARK  Name = /web/media/ligands/6EYA_ligand.pdb
REMARK  8 active torsions:
REMARK  status: ('A' for Active; 'I' for Inactive)
REMARK    1  A    between atoms: C_15  and  C_16
REMARK    2  A    between atoms: C_15  and  C_18
REMARK    3  A    between atoms: C_16  and  C_17
REMARK    4  A    between atoms: C_38  and  O_59
REMARK    5  A    between atoms: C_53  and  C_54
REMARK    6  A    between atoms: C_57  and  C_58
REMARK    7  A    between atoms: C_57  and  O_60
REMARK    8  A    between atoms: O_59  and  O_60
REMARK                            x       y       z     vdW  Elec       q    Type
REMARK                         _______ _______ _______ _____ _____    ______ ____
ROOT
ATOM      1  C   UNL     1      65.721  34.957  22.587  0.00  0.00    +0.279 C 
ATOM      2  O   UNL     1      65.086  34.712  21.815  0.00  0.00    -0.279 OA
ENDROOT
TORSDOF 0
REMARK  Name = /web/media/ligands/6EYA_ligand.pdb
REMARK  8 active torsions:
REMARK  status: ('A' for Active; 'I' for Inactive)
REMARK    1  A    between atoms: C_15  and  C_16
REMARK    2  A    between atoms: C_15  and  C_18
REMARK    3  A    between atoms: C_16  and  C_17
REMARK    4  A    between atoms: C_38  and  O_59
REMARK    5  A    between atoms: C_53  and  C_54
REMARK    6  A    between atoms: C_57  and  C_58
REMARK    7  A    between atoms: C_57  and  O_60
REMARK    8  A    between atoms: O_59  and  O_60
REMARK                            x       y       z     vdW  Elec       q    Type
REMARK                         _______ _______ _______ _____ _____    ______ ____
ROOT
ATOM      1  O   HOH     1      65.015  34.392  21.771  0.00  0.00    +0.000 OA
ENDROOT
TORSDOF 0
REMARK  Name = /web/media/ligands/6EYA_ligand.pdb
REMARK  8 active torsions:
REMARK  status: ('A' for Active; 'I' for Inactive)
REMARK    1  A    between atoms: C_15  and  C_16
REMARK    2  A    between atoms: C_15  and  C_18
REMARK    3  A    between atoms: C_16  and  C_17
REMARK    4  A    between atoms: C_38  and  O_59
REMARK    5  A    between atoms: C_53  and  C_54
REMARK    6  A    between atoms: C_57  and  C_58
REMARK    7  A    between atoms: C_57  and  O_60
REMARK    8  A    between atoms: O_59  and  O_60
REMARK                            x       y       z     vdW  Elec       q    Type
REMARK                         _______ _______ _______ _____ _____    ______ ____
ROOT
ATOM      1  N   UNL     1      66.625  32.580  27.616  0.00  0.00    +0.000 NA
ATOM      2  N   UNL     1      67.796  32.485  27.714  0.00  0.00    +0.000 NA
ENDROOT
TORSDOF 0
REMARK  Name = /web/media/ligands/6EYA_ligand.pdb
REMARK  8 active torsions:
REMARK  status: ('A' for Active; 'I' for Inactive)
REMARK    1  A    between atoms: C_15  and  C_16
REMARK    2  A    between atoms: C_15  and  C_18
REMARK    3  A    between atoms: C_16  and  C_17
REMARK    4  A    between atoms: C_38  and  O_59
REMARK    5  A    between atoms: C_53  and  C_54
REMARK    6  A    between atoms: C_57  and  C_58
REMARK    7  A    between atoms: C_57  and  O_60
REMARK    8  A    between atoms: O_59  and  O_60
REMARK                            x       y       z     vdW  Elec       q    Type
REMARK                         _______ _______ _______ _____ _____    ______ ____
ROOT
ATOM      1  C   UNL     1      66.293  37.114  21.232  0.00  0.00    +0.000 C 
ATOM      2  C   UNL     1      65.949  36.759  20.952  0.00  0.00    +0.000 C 
ENDROOT
TORSDOF 0
