/web/media/ligands/3EKX_ligand.pdb
 OpenBabel04242009293D

 40 43  0  0  1  0  0  0  0  0999 V2000
   17.6520   27.4490   12.7990 C   0  0  2  0  0  0  0  0  0  0  0  0
   18.3740   26.8110   11.6210 C   0  0  1  0  0  0  0  0  0  0  0  0
   17.5420   26.7500   10.3450 C   0  0  0  0  0  0  0  0  0  0  0  0
   16.8880   28.0990   10.0830 C   0  0  0  0  0  0  0  0  0  0  0  0
   16.1660   28.5860   11.3310 C   0  0  0  0  0  0  0  0  0  0  0  0
   17.1240   28.8360   12.4940 C   0  0  0  0  0  0  0  0  0  0  0  0
   19.7000   28.3220   13.7270 N   0  0  0  0  0  0  0  0  0  0  0  0
   20.4650   27.6440   12.6890 C   0  0  1  0  0  0  0  0  0  0  0  0
   19.6630   27.5800   11.3870 C   0  0  0  0  0  0  0  0  0  0  0  0
   18.5190   27.5190   14.0440 C   0  0  0  0  0  0  0  0  0  0  0  0
   21.7100   28.3770   12.3210 C   0  0  0  0  0  0  0  0  0  0  0  0
   22.7420   27.5550   12.1370 N   0  0  0  0  0  0  0  0  0  0  0  0
   24.0630   27.9180   11.6750 C   0  0  0  0  0  0  0  0  0  0  0  0
   24.6920   28.7540   12.7890 C   0  0  0  0  0  0  0  0  0  0  0  0
   23.9610   28.6780   10.3500 C   0  0  0  0  0  0  0  0  0  0  0  0
   24.8630   26.6300   11.4480 C   0  0  0  0  0  0  0  0  0  0  0  0
   21.6810   29.5930   12.1850 O   0  0  0  0  0  0  0  0  0  0  0  0
   20.4270   28.3490   14.9830 C   0  0  0  0  0  0  0  0  0  0  0  0
   19.9360   29.5350   15.7930 C   0  0  2  0  0  0  0  0  0  0  0  0
   20.5990   30.8460   15.3910 C   0  0  1  0  0  0  0  0  0  0  0  0
   20.2180   29.1920   17.1330 O   0  0  0  0  0  0  0  0  0  0  0  0
   19.8830   31.9160   16.0470 N   0  0  0  0  0  0  0  0  0  0  0  0
   22.0740   31.0060   15.7490 C   0  0  0  0  0  0  0  0  0  0  0  0
   18.8960   32.5950   15.4700 C   0  0  0  0  0  0  0  0  0  0  0  0
   18.5620   32.4850   14.3050 O   0  0  0  0  0  0  0  0  0  0  0  0
   18.1700   33.5500   16.3600 C   0  0  0  0  0  0  0  0  0  0  0  0
   18.9000   34.4270   17.1640 C   0  0  0  0  0  0  0  0  0  0  0  0
   18.2810   35.3300   18.0260 C   0  0  0  0  0  0  0  0  0  0  0  0
   16.8960   35.3930   18.1000 C   0  0  0  0  0  0  0  0  0  0  0  0
   16.1010   34.5470   17.3310 C   0  0  0  0  0  0  0  0  0  0  0  0
   16.6960   33.5600   16.4060 C   0  0  0  0  0  0  0  0  0  0  0  0
   14.7860   34.5830   17.4030 O   0  0  0  0  0  0  0  0  0  0  0  0
   15.7930   32.6670   15.5910 C   0  0  0  0  0  0  0  0  0  0  0  0
   22.7670   32.3280   14.8010 S   0  0  0  0  0  0  0  0  0  0  0  0
   22.6520   33.7870   15.6490 C   0  0  0  0  0  0  0  0  0  0  0  0
   22.4720   34.9430   14.9010 C   0  0  0  0  0  0  0  0  0  0  0  0
   22.3600   36.1670   15.5410 C   0  0  0  0  0  0  0  0  0  0  0  0
   22.4490   36.2380   16.9250 C   0  0  0  0  0  0  0  0  0  0  0  0
   22.6340   35.0800   17.6700 C   0  0  0  0  0  0  0  0  0  0  0  0
   22.7350   33.8470   17.0370 C   0  0  0  0  0  0  0  0  0  0  0  0
  1  6  1  6  0  0  0
  1 10  1  0  0  0  0
  2  3  1  6  0  0  0
  2  1  1  0  0  0  0
  4  3  1  0  0  0  0
  4  5  1  0  0  0  0
  5  6  1  0  0  0  0
  7 10  1  0  0  0  0
  7 18  1  0  0  0  0
  8 11  1  6  0  0  0
  8  7  1  0  0  0  0
  9  2  1  0  0  0  0
  9  8  1  0  0  0  0
 12 11  1  0  0  0  0
 13 12  1  0  0  0  0
 13 14  1  0  0  0  0
 15 13  1  0  0  0  0
 16 13  1  0  0  0  0
 17 11  2  0  0  0  0
 18 19  1  0  0  0  0
 19 21  1  1  0  0  0
 20 23  1  1  0  0  0
 20 19  1  0  0  0  0
 20 22  1  0  0  0  0
 24 22  1  0  0  0  0
 24 26  1  0  0  0  0
 25 24  2  0  0  0  0
 26 31  2  0  0  0  0
 26 27  1  0  0  0  0
 27 28  2  0  0  0  0
 28 29  1  0  0  0  0
 30 32  1  0  0  0  0
 30 29  2  0  0  0  0
 31 30  1  0  0  0  0
 33 31  1  0  0  0  0
 34 35  1  0  0  0  0
 34 23  1  0  0  0  0
 35 40  2  0  0  0  0
 36 37  2  0  0  0  0
 36 35  1  0  0  0  0
 37 38  1  0  0  0  0
 38 39  2  0  0  0  0
 40 39  1  0  0  0  0
M  END
>  <REMARK>
 800 SITE_DESCRIPTION: BINDING SITE FOR RESIDUE 1UN B 201                 

>  <HET>
 1UN  B 201      40                                                       

>  <HETNAM>
     1UN 2-[2-HYDROXY-3-(3-HYDROXY-2-METHYL-BENZOYLAMINO)-4-              
   2 1UN  PHENYL SULFANYL-BUTYL]-DECAHYDRO-ISOQUINOLINE-3-                
   3 1UN  CARBOXYLIC ACID TERT-BUTYLAMIDE                                 

>  <HETSYN>
     1UN NELFINAVIR MESYLATE AG1343                                       

>  <FORMUL>
   3  1UN    C32 H45 N3 O4 S                                              

$$$$
