REMARK  Name = /web/media/ligands/4DAJ_ligand.pdb
REMARK  5 active torsions:
REMARK  status: ('A' for Active; 'I' for Inactive)
REMARK    1  A    between atoms: C_1  and  O_12
REMARK    2  A    between atoms: C_1  and  C_25
REMARK    3  A    between atoms: C_3  and  C_25
REMARK    4  A    between atoms: C_4  and  C_25
REMARK    5  A    between atoms: O_12  and  C_19
REMARK                            x       y       z     vdW  Elec       q    Type
REMARK                         _______ _______ _______ _____ _____    ______ ____
ROOT
ATOM      1  C   UNL     1     -15.942  -7.110 -43.258  0.00  0.00    +0.354 C 
ATOM      2  O   UNL     1     -16.533  -7.890 -43.996  0.00  0.00    -0.247 OA
ENDROOT
BRANCH   1   3
ATOM      3  C   UNL     1     -16.442  -5.705 -43.049  0.00  0.00    +0.263 C 
ATOM      4  O   UNL     1     -17.696  -5.630 -43.612  0.00  0.00    -0.204 OA
BRANCH   3   5
ATOM      5  C   UNL     1     -16.491  -5.443 -41.570  0.00  0.00    +0.049 A 
ATOM      6  C   UNL     1     -16.100  -6.275 -40.545  0.00  0.00    +0.006 A 
ATOM      7  C   UNL     1     -16.207  -5.840 -39.258  0.00  0.00    +0.007 A 
ATOM      8  C   UNL     1     -16.694  -4.577 -39.029  0.00  0.00    +0.035 A 
ATOM      9  S   UNL     1     -17.008  -3.986 -40.692  0.00  0.00    -0.088 S 
ENDBRANCH   3   5
BRANCH   3  10
ATOM     10  C   UNL     1     -15.481  -4.730 -43.680  0.00  0.00    +0.049 A 
ATOM     11  S   UNL     1     -15.505  -3.911 -45.265  0.00  0.00    -0.088 S 
ATOM     12  C   UNL     1     -13.989  -2.962 -45.075  0.00  0.00    +0.035 A 
ATOM     13  C   UNL     1     -13.584  -3.337 -43.819  0.00  0.00    +0.007 A 
ATOM     14  C   UNL     1     -14.337  -4.219 -43.121  0.00  0.00    +0.006 A 
ENDBRANCH   3  10
ENDBRANCH   1   3
BRANCH   1  15
ATOM     15  O   UNL     1     -14.798  -7.505 -42.534  0.00  0.00    -0.450 OA
BRANCH  15  16
ATOM     16  C   UNL     1     -14.231  -8.787 -42.686  0.00  0.00    +0.165 C 
ATOM     17  C   UNL     1     -13.503  -8.848 -44.011  0.00  0.00    +0.026 C 
ATOM     18  C   UNL     1     -12.100  -8.337 -43.850  0.00  0.00    -0.020 C 
ATOM     19  N   UNL     1     -11.349  -8.946 -42.827  0.00  0.00    +0.393 N 
ATOM     20  C   UNL     1     -12.007  -8.438 -41.703  0.00  0.00    -0.020 C 
ATOM     21  C   UNL     1     -12.224  -6.959 -41.980  0.00  0.00    +0.122 C 
ATOM     22  O   UNL     1     -11.235  -6.235 -42.709  0.00  0.00    -0.358 OA
ATOM     23  C   UNL     1      -9.948  -8.562 -42.882  0.00  0.00    -0.095 C 
ATOM     24  C   UNL     1     -11.358 -10.366 -42.857  0.00  0.00    -0.095 C 
ATOM     25  C   UNL     1     -12.268  -6.877 -43.448  0.00  0.00    +0.122 C 
ATOM     26  C   UNL     1     -13.364  -9.019 -41.478  0.00  0.00    +0.026 C 
ENDBRANCH  15  16
ENDBRANCH   1  15
TORSDOF 5
