REMARK  Name = /web/media/ligands/5LR7_ligand.pdb
REMARK  3 active torsions:
REMARK  status: ('A' for Active; 'I' for Inactive)
REMARK    1  A    between atoms: C_1  and  C_6
REMARK    2  A    between atoms: N_14  and  C_19
REMARK    3  A    between atoms: C_25  and  C_26
REMARK                            x       y       z     vdW  Elec       q    Type
REMARK                         _______ _______ _______ _____ _____    ______ ____
ROOT
ATOM      1  C   UNL     1      28.597  24.179  12.360  0.00  0.00    +0.140 C 
ATOM      2  C   UNL     1      28.056  24.977  13.468  0.00  0.00    +0.002 A 
ATOM      3  C   UNL     1      28.715  25.563  14.547  0.00  0.00    -0.002 A 
ATOM      4  C   UNL     1      28.006  26.301  15.479  0.00  0.00    -0.000 A 
ATOM      5  C   UNL     1      26.638  26.472  15.338  0.00  0.00    +0.003 A 
ATOM      6  C   UNL     1      25.962  25.877  14.267  0.00  0.00    +0.036 A 
ATOM      7  C   UNL     1      26.664  25.116  13.311  0.00  0.00    +0.001 A 
ATOM      8  C   UNL     1      26.269  24.419  12.061  0.00  0.00    -0.002 A 
ATOM      9  C   UNL     1      25.037  24.236  11.425  0.00  0.00    -0.000 A 
ATOM     10  C   UNL     1      24.986  23.585  10.199  0.00  0.00    -0.000 A 
ATOM     11  C   UNL     1      26.153  23.114   9.602  0.00  0.00    -0.000 A 
ATOM     12  C   UNL     1      27.379  23.286  10.229  0.00  0.00    -0.002 A 
ATOM     13  C   UNL     1      27.440  23.931  11.463  0.00  0.00    +0.002 A 
ENDROOT
BRANCH   6  14
ATOM     14  C   UNL     1      24.512  26.111  14.219  0.00  0.00    +0.162 A 
ATOM     15  N   UNL     1      23.607  25.151  14.061  0.00  0.00    -0.225 NA
ATOM     16  C   UNL     1      22.379  25.790  14.193  0.00  0.00    +0.103 A 
ATOM     17  C   UNL     1      21.085  25.279  14.142  0.00  0.00    +0.050 A 
ATOM     18  C   UNL     1      20.052  26.169  14.339  0.00  0.00    +0.142 A 
ATOM     19  C   UNL     1      20.223  27.526  14.564  0.00  0.00    +0.031 A 
ATOM     20  C   UNL     1      21.517  28.033  14.599  0.00  0.00    +0.023 A 
ATOM     21  F   UNL     1      18.796  25.668  14.373  0.00  0.00    -0.204 F 
ATOM     22  C   UNL     1      22.579  27.151  14.420  0.00  0.00    +0.101 A 
ATOM     23  N   UNL     1      23.948  27.333  14.423  0.00  0.00    -0.225 NA
ENDBRANCH   6  14
BRANCH   1  25
ATOM     24  C   UNL     1      30.823  24.066  11.386  0.00  0.00    +0.250 C 
ATOM     25  N   UNL     1      29.748  24.805  11.698  0.00  0.00    -0.198 NA
ATOM     26  O   UNL     1      30.804  22.846  11.478  0.00  0.00    -0.273 OA
BRANCH  24  27
ATOM     27  C   UNL     1      32.088  24.772  11.003  0.00  0.00    +0.134 C 
ATOM     28  C   UNL     1      32.061  25.967  10.273  0.00  0.00    +0.038 C 
ATOM     29  C   UNL     1      33.256  26.622  10.015  0.00  0.00    +0.232 C 
ATOM     30  N   UNL     1      34.459  26.177  10.419  0.00  0.00    -0.031 NA
ATOM     31  C   UNL     1      34.482  25.004  11.087  0.00  0.00    +0.372 C 
ATOM     32  N   UNL     1      35.570  24.292  11.496  0.00  0.00    -0.031 NA
ATOM     33  C   UNL     1      35.145  23.119  12.080  0.00  0.00    +0.236 C 
ATOM     34  C   UNL     1      33.789  23.055  12.060  0.00  0.00    +0.055 C 
ATOM     35  C   UNL     1      33.332  24.257  11.423  0.00  0.00    +0.083 C 
ENDBRANCH  24  27
ENDBRANCH   1  25
TORSDOF 3
