@<TRIPOS>MOLECULE
/web/media/ligands/5LR7_ligand.pdb
 35 41 0 0 0
SMALL
GASTEIGER

@<TRIPOS>ATOM
      1 C          32.0880   24.7720   11.0030 C.3     1  UNL1        0.1337
      2 C          35.1450   23.1190   12.0800 C.2     1  UNL1        0.2359
      3 C          33.7890   23.0550   12.0600 C.2     1  UNL1        0.0547
      4 C          33.3320   24.2570   11.4230 C.2     1  UNL1        0.0826
      5 C          34.4820   25.0040   11.0870 C.2     1  UNL1        0.3724
      6 C          30.8230   24.0660   11.3860 C.2     1  UNL1        0.2501
      7 N          34.4590   26.1770   10.4190 N.2     1  UNL1       -0.0311
      8 C          27.3790   23.2860   10.2290 C.ar    1  UNL1       -0.0023
      9 C          24.9860   23.5850   10.1990 C.ar    1  UNL1       -0.0000
     10 C          26.1530   23.1140    9.6020 C.ar    1  UNL1       -0.0003
     11 C          32.0610   25.9670   10.2730 C.2     1  UNL1        0.0378
     12 C          33.2560   26.6220   10.0150 C.2     1  UNL1        0.2322
     13 N          35.5700   24.2920   11.4960 N.2     1  UNL1       -0.0308
     14 N          29.7480   24.8050   11.6980 N.am    1  UNL1       -0.1976
     15 O          30.8040   22.8460   11.4780 O.2     1  UNL1       -0.2726
     16 C          25.0370   24.2360   11.4250 C.ar    1  UNL1       -0.0003
     17 C          26.2690   24.4190   12.0610 C.ar    1  UNL1       -0.0022
     18 C          27.4400   23.9310   11.4630 C.ar    1  UNL1        0.0016
     19 C          28.5970   24.1790   12.3600 C.3     1  UNL1        0.1397
     20 C          26.6640   25.1160   13.3110 C.ar    1  UNL1        0.0007
     21 C          28.0560   24.9770   13.4680 C.ar    1  UNL1        0.0017
     22 C          28.7150   25.5630   14.5470 C.ar    1  UNL1       -0.0023
     23 C          28.0060   26.3010   15.4790 C.ar    1  UNL1       -0.0002
     24 C          26.6380   26.4720   15.3380 C.ar    1  UNL1        0.0030
     25 C          25.9620   25.8770   14.2670 C.ar    1  UNL1        0.0355
     26 C          24.5120   26.1110   14.2190 C.ar    1  UNL1        0.1622
     27 N          23.9480   27.3330   14.4230 N.ar    1  UNL1       -0.2251
     28 N          23.6070   25.1510   14.0610 N.ar    1  UNL1       -0.2250
     29 C          22.3790   25.7900   14.1930 C.ar    1  UNL1        0.1028
     30 C          22.5790   27.1510   14.4200 C.ar    1  UNL1        0.1007
     31 C          21.5170   28.0330   14.5990 C.ar    1  UNL1        0.0230
     32 C          20.2230   27.5260   14.5640 C.ar    1  UNL1        0.0313
     33 C          20.0520   26.1690   14.3390 C.ar    1  UNL1        0.1417
     34 C          21.0850   25.2790   14.1420 C.ar    1  UNL1        0.0503
     35 F          18.7960   25.6680   14.3730 F       1  UNL1       -0.2041
@<TRIPOS>BOND
     1     1     6    1
     2     1     4    1
     3     3     2    1
     4     4     3    2
     5     5     4    1
     6     5    13    1
     7     6    15    2
     8     6    14   am
     9     7     5    2
    10     8    18   ar
    11     9    16   ar
    12    10     9   ar
    13    10     8   ar
    14    11     1    1
    15    12    11    2
    16    12     7    1
    17    13     2    2
    18    16    17   ar
    19    17    20    1
    20    18    17   ar
    21    18    19    1
    22    19    14    1
    23    19    21    1
    24    20    21   ar
    25    20    25   ar
    26    21    22   ar
    27    22    23   ar
    28    24    23   ar
    29    25    24   ar
    30    26    25    1
    31    26    27   ar
    32    28    29   ar
    33    28    26   ar
    34    29    30   ar
    35    30    27   ar
    36    30    31   ar
    37    32    31   ar
    38    33    35    1
    39    33    32   ar
    40    34    29   ar
    41    34    33   ar
