@<TRIPOS>MOLECULE
6FF
   48    50     1     0     0
SMALL
bcc


@<TRIPOS>ATOM
      1 H12          0.7310    38.0140    26.0910 ha         0 6FF       0.143000
      2 H13          4.5130    31.9390    23.9680 h1         0 6FF       0.058200
      3 H17          1.4920    29.7300    25.1830 h1         0 6FF       0.046367
      4 H18          3.0500    28.8990    25.4080 h1         0 6FF       0.046367
      5 H19          2.3230    29.8080    26.7550 h1         0 6FF       0.046367
      6 H02          4.3580    37.4260    23.8470 ha         0 6FF       0.161000
      7 H01         -2.1910    31.9680    25.4470 ha         0 6FF       0.164000
      8 H06          6.1620    30.8590    22.5340 hc         0 6FF       0.039033
      9 H07          2.0450    33.7280    23.4890 ha         0 6FF       0.160000
     10 H15          5.9660    30.4050    25.0920 hc         0 6FF       0.049200
     11 H05          5.5490    29.2000    22.3310 hc         0 6FF       0.039033
     12 H04          7.0790    29.4840    23.1950 hc         0 6FF       0.039033
     13 H03         -0.5700    36.8590    24.3150 ha         0 6FF       0.145000
     14 H16          4.9660    29.0160    24.6340 hc         0 6FF       0.049200
     15 H10         -0.7970    35.4290    19.1950 hn         0 6FF       0.340500
     16 H09         -2.7760    32.4350    22.8260 ho         0 6FF       0.434000
     17 H08          0.8630    31.0760    26.9670 ho         0 6FF       0.478000
     18 H11          3.1750    38.3270    25.8400 ha         0 6FF       0.145000
     19 H14          3.5610    30.5850    23.2220 h1         0 6FF       0.058200
     20 C           -0.0300    32.1400    25.6650 ca         0 6FF       0.328100
     21 C1          -1.2670    32.3590    25.0200 ca         0 6FF      -0.299000
     22 C2          -1.2890    33.0820    23.8290 ca         0 6FF       0.253100
     23 C3          -0.1250    34.5120    22.1330 cc         0 6FF       0.427500
     24 C4           0.2430    36.2620    20.8280 c          0 6FF       0.734500
     25 C5           1.1710    36.4400    23.0940 ca         0 6FF       0.000600
     26 C6           2.5470    36.6260    22.9550 ca         0 6FF       0.152900
     27 C7           3.2800    37.2980    23.9500 ca         0 6FF      -0.151000
     28 C8           0.5100    36.9670    24.2170 ca         0 6FF      -0.101000
     29 C9           6.0810    29.8770    23.0000 c3         0 6FF      -0.094100
     30 C10         -0.1040    33.6540    23.3310 ca         0 6FF      -0.197900
     31 C11          1.1170    33.4000    23.9570 ca         0 6FF       0.058000
     32 C12          1.1540    32.7320    25.1710 ca         0 6FF      -0.507500
     33 O           -0.0150    31.4360    26.8220 oh         0 6FF      -0.499100
     34 O1          -2.4500    33.2770    23.1520 oh         0 6FF      -0.470100
     35 N           -0.7270    34.2500    20.9940 nd         0 6FF      -0.482300
     36 N1          -0.4830    35.3420    20.1510 n          0 6FF      -0.260900
     37 N2           0.4650    35.7710    22.0690 n          0 6FF      -0.304500
     38 C13          2.6150    37.7990    25.0690 ca         0 6FF      -0.091000
     39 C14          1.2400    37.6290    25.2070 ca         0 6FF      -0.139000
     40 O2           0.6300    37.3490    20.4100 o          0 6FF      -0.582500
     41 S            2.7570    32.4630    25.8940 sy         0 6FF       1.525200
     42 O3           3.6420    33.4630    25.3670 o          0 6FF      -0.662300
     43 O4           2.5060    32.3690    27.2960 o          0 6FF      -0.662300
     44 N3           3.1750    30.9950    25.2380 n3         0 6FF      -0.815500
     45 C15          4.1100    30.9340    24.0970 c3         0 6FF       0.218800
     46 C16          5.3150    29.9990    24.3180 c3         0 6FF      -0.096400
     47 C17          2.4640    29.7790    25.6750 c3         0 6FF       0.208100
     48 F            3.1460    36.1130    21.8630 f          0 6FF      -0.131900
@<TRIPOS>BOND
     1     1    39 1   
     2     2    45 1   
     3     3    47 1   
     4     4    47 1   
     5     5    47 1   
     6     6    27 1   
     7     7    21 1   
     8     8    29 1   
     9     9    31 1   
    10    10    46 1   
    11    11    29 1   
    12    12    29 1   
    13    13    28 1   
    14    14    46 1   
    15    15    36 1   
    16    16    34 1   
    17    17    33 1   
    18    18    38 1   
    19    19    45 1   
    20    20    21 ar  
    21    20    32 ar  
    22    20    33 1   
    23    21    22 ar  
    24    22    30 ar  
    25    22    34 1   
    26    23    30 1   
    27    23    35 2   
    28    23    37 1   
    29    24    36 1   
    30    24    37 1   
    31    24    40 2   
    32    25    26 ar  
    33    25    28 ar  
    34    25    37 1   
    35    26    27 ar  
    36    26    48 1   
    37    27    38 ar  
    38    28    39 ar  
    39    29    46 1   
    40    30    31 ar  
    41    31    32 ar  
    42    32    41 1   
    43    35    36 1   
    44    38    39 ar  
    45    41    42 2   
    46    41    43 2   
    47    41    44 1   
    48    44    45 1   
    49    44    47 1   
    50    45    46 1   
@<TRIPOS>SUBSTRUCTURE
     1 6FF         1 TEMP              0 ****  ****    0 ROOT
