@<TRIPOS>MOLECULE
6FF
   47    49     1     0     0
SMALL
bcc


@<TRIPOS>ATOM
      1 C1          -0.0300    32.1400    25.6650 ca       301 6FF       0.279100
      2 C2          -1.2670    32.3590    25.0200 ca       301 6FF      -0.249000
      3 C3          -1.2890    33.0820    23.8290 ca       301 6FF       0.230100
      4 C4          -0.1040    33.6540    23.3310 ca       301 6FF      -0.118900
      5 C5           1.1170    33.4000    23.9570 ca       301 6FF       0.010000
      6 C6           1.1540    32.7320    25.1710 ca       301 6FF      -0.529500
      7 O7          -0.0150    31.4360    26.8220 oh       301 6FF      -0.522100
      8 O8          -2.4500    33.2770    23.1520 oh       301 6FF      -0.502100
      9 C9          -0.1250    34.5120    22.1330 cc       301 6FF       0.004200
     10 N10         -0.7270    34.2500    20.9940 nc       301 6FF      -0.245300
     11 N11         -0.4830    35.3420    20.1510 nd       301 6FF      -0.411400
     12 C12          0.2430    36.2620    20.8280 c        301 6FF       0.735900
     13 N13          0.4650    35.7710    22.0690 n        301 6FF      -0.272600
     14 C14          1.1710    36.4400    23.0940 ca       301 6FF       0.058600
     15 C15          2.5470    36.6260    22.9550 ca       301 6FF       0.124900
     16 C16          3.2800    37.2980    23.9500 ca       301 6FF      -0.165000
     17 C17          2.6150    37.7990    25.0690 ca       301 6FF      -0.144000
     18 C18          1.2400    37.6290    25.2070 ca       301 6FF      -0.137000
     19 C19          0.5100    36.9670    24.2170 ca       301 6FF      -0.146000
     20 O20          0.6300    37.3490    20.4100 o        301 6FF      -0.660500
     21 S21          2.7570    32.4630    25.8940 sy       301 6FF       1.529200
     22 O22          3.6420    33.4630    25.3670 o        301 6FF      -0.674800
     23 O23          2.5060    32.3690    27.2960 o        301 6FF      -0.674800
     24 N24          3.1750    30.9950    25.2380 n3       301 6FF      -0.805500
     25 C25          4.1100    30.9340    24.0970 c3       301 6FF       0.220800
     26 C26          5.3150    29.9990    24.3180 c3       301 6FF      -0.094400
     27 C27          6.0810    29.8770    23.0000 c3       301 6FF      -0.093100
     28 C28          2.4640    29.7790    25.6750 c3       301 6FF       0.215100
     29 F29          3.1460    36.1130    21.8630 f        301 6FF      -0.127900
     30 H01         -2.1910    31.9680    25.4470 ha       301 6FF       0.158000
     31 H02          2.0450    33.7280    23.4890 ha       301 6FF       0.155000
     32 H03          0.8630    31.0760    26.9670 ho       301 6FF       0.458000
     33 H04         -2.7760    32.4350    22.8260 ho       301 6FF       0.461000
     34 H05          4.3580    37.4260    23.8470 ha       301 6FF       0.132000
     35 H06          3.1750    38.3270    25.8400 ha       301 6FF       0.118000
     36 H07          0.7310    38.0140    26.0910 ha       301 6FF       0.120000
     37 H08         -0.5700    36.8590    24.3150 ha       301 6FF       0.141000
     38 H09          4.5130    31.9390    23.9680 h1       301 6FF       0.060200
     39 H10          3.5610    30.5850    23.2220 h1       301 6FF       0.060200
     40 H11          4.9710    29.0170    24.6430 hc       301 6FF       0.041700
     41 H12          5.9670    30.4140    25.0860 hc       301 6FF       0.041700
     42 H13          7.0790    29.4840    23.1950 hc       301 6FF       0.035033
     43 H14          5.5490    29.2000    22.3310 hc       301 6FF       0.035033
     44 H15          6.1620    30.8590    22.5340 hc       301 6FF       0.035033
     45 H16          1.4920    29.7300    25.1830 h1       301 6FF       0.038033
     46 H17          3.0500    28.8990    25.4080 h1       301 6FF       0.038033
     47 H18          2.3230    29.8080    26.7550 h1       301 6FF       0.038033
@<TRIPOS>BOND
     1     1     2 ar  
     2     1     6 ar  
     3     1     7 1   
     4     2     3 ar  
     5     2    30 1   
     6     3     4 ar  
     7     3     8 1   
     8     4     5 ar  
     9     4     9 1   
    10     5     6 ar  
    11     5    31 1   
    12     6    21 1   
    13     7    32 1   
    14     8    33 1   
    15     9    10 1   
    16     9    13 2   
    17    10    11 2   
    18    11    12 1   
    19    12    13 1   
    20    12    20 2   
    21    13    14 1   
    22    14    15 ar  
    23    14    19 ar  
    24    15    16 ar  
    25    15    29 1   
    26    16    17 ar  
    27    16    34 1   
    28    17    18 ar  
    29    17    35 1   
    30    18    19 ar  
    31    18    36 1   
    32    19    37 1   
    33    21    22 2   
    34    21    23 2   
    35    21    24 1   
    36    24    25 1   
    37    24    28 1   
    38    25    26 1   
    39    25    38 1   
    40    25    39 1   
    41    26    27 1   
    42    26    40 1   
    43    26    41 1   
    44    27    42 1   
    45    27    43 1   
    46    27    44 1   
    47    28    45 1   
    48    28    46 1   
    49    28    47 1   
@<TRIPOS>SUBSTRUCTURE
     1 6FF         1 TEMP              0 ****  ****    0 ROOT
