@<TRIPOS>MOLECULE
74E
   61    64     1     0     0
SMALL
bcc


@<TRIPOS>ATOM
      1 H04         28.6840    26.4460    16.0800 hc         0 74E       0.040533
      2 H03         28.6370    23.3690     9.3080 h4         0 74E       0.173000
      3 H07         26.3630    27.4660    14.4190 hc         0 74E       0.040533
      4 H06         28.1410    24.7770    16.3760 hc         0 74E       0.040533
      5 H09         27.0380    26.9340    12.8600 hc         0 74E       0.040533
      6 H05         26.9970    26.1310    16.5500 hc         0 74E       0.040533
      7 H12         29.3660    25.6630    13.5680 hc         0 74E       0.061200
      8 H11         33.2900    23.7730    13.1010 ha         0 74E       0.139000
      9 H18         31.3580    25.7950     7.7060 h1         0 74E       0.057700
     10 H10         30.8720    23.2810    13.1520 ha         0 74E       0.148000
     11 H16         35.1310    23.4120    12.2560 hn         0 74E       0.314500
     12 H15         36.4990    24.4280    11.8620 hn         0 74E       0.314500
     13 H08         28.1060    27.6330    14.1010 hc         0 74E       0.040533
     14 H17         33.9380    26.0430     9.0550 hn         0 74E       0.439800
     15 H21         30.6460    29.5140     7.4040 hc         0 74E       0.050950
     16 H20         30.9310    27.7230     9.1210 hc         0 74E       0.055450
     17 H19         32.4720    28.4740     8.5700 hc         0 74E       0.055450
     18 H22         30.0140    27.9170     6.8800 hc         0 74E       0.050950
     19 H25         31.5150    26.5530     5.2150 hc         0 74E       0.050950
     20 H24         33.0510    27.3260     4.6980 hc         0 74E       0.050950
     21 H23         32.6310    29.2210     6.1040 h1         0 74E       0.079700
     22 H13         28.9560    24.0830    14.3600 hc         0 74E       0.061200
     23 H29         24.9630    24.0440     9.9000 hc         0 74E       0.052700
     24 H28         30.7940    28.3810     4.1900 ho         0 74E       0.396000
     25 H27         33.3900    25.5480     6.4100 hc         0 74E       0.055450
     26 H30         26.1020    23.3930     8.6970 hc         0 74E       0.052700
     27 H26         33.9380    27.1740     6.9410 hc         0 74E       0.055450
     28 H14         30.3820    25.2550     9.3610 ha         0 74E       0.152000
     29 H31         25.4420    22.3310     9.9640 hc         0 74E       0.052700
     30 H01         25.3790    25.3860    14.7610 hc         0 74E       0.071200
     31 H02         26.3420    23.8480    14.9500 hc         0 74E       0.071200
     32 C           26.1930    24.7670    14.3830 c3         0 74E      -0.174400
     33 C1          28.1920    24.3750    12.4120 cc         0 74E      -0.038600
     34 C2          26.8870    24.1440    12.0060 cd         0 74E      -0.241600
     35 C3          26.9370    23.7000    10.6390 cd         0 74E      -0.065300
     36 C4          28.2590    23.6730    10.2840 cc         0 74E      -0.176300
     37 C5          27.8490    25.7520    15.9850 c3         0 74E      -0.092100
     38 C6          27.2260    27.0130    13.9310 c3         0 74E      -0.092100
     39 C7          30.4740    24.2660    11.2740 ca         0 74E       0.070800
     40 C8          31.2970    23.8320    12.3130 ca         0 74E      -0.206000
     41 C9          32.6550    24.1020    12.2780 ca         0 74E      -0.049000
     42 C10         25.8080    24.3890    12.9730 c          0 74E       0.613700
     43 C11         28.5970    24.9130    13.7510 c3         0 74E      -0.017100
     44 C12         27.4650    25.6160    14.5120 c3         0 74E      -0.039000
     45 N           29.0440    24.0870    11.3440 na         0 74E       0.009800
     46 O           24.6280    24.3690    12.6510 o          0 74E      -0.551100
     47 C13         33.2240    24.7920    11.2010 ca         0 74E      -0.226600
     48 C14         32.3950    25.2150    10.1360 ca         0 74E       0.243600
     49 C15         31.0250    24.9400    10.1830 ca         0 74E      -0.228000
     50 C16         34.6930    25.1080    11.2280 c          0 74E       0.683700
     51 N1          35.5060    24.2470    11.8300 n          0 74E      -0.668000
     52 N2          32.9370    25.9090     9.0580 nh         0 74E      -0.737600
     53 C17         32.1910    26.4610     7.9320 c3         0 74E       0.204500
     54 C18         31.6330    27.8350     8.2940 c3         0 74E      -0.094400
     55 C19         30.9070    28.4960     7.1150 c3         0 74E      -0.109400
     56 C20         31.7890    28.5660     5.8810 c3         0 74E       0.136100
     57 C21         32.3400    27.1990     5.5150 c3         0 74E      -0.109400
     58 C22         33.0770    26.5520     6.6960 c3         0 74E      -0.094400
     59 O1          31.0410    29.0950     4.7830 oh         0 74E      -0.591800
     60 C23         25.7810    23.3420     9.7370 c3         0 74E      -0.039800
     61 O2          35.1150    26.1460    10.6860 o          0 74E      -0.633100
@<TRIPOS>BOND
     1     1    37 1   
     2     2    36 1   
     3     3    38 1   
     4     4    37 1   
     5     5    38 1   
     6     6    37 1   
     7     7    43 1   
     8     8    41 1   
     9     9    53 1   
    10    10    40 1   
    11    11    51 1   
    12    12    51 1   
    13    13    38 1   
    14    14    52 1   
    15    15    55 1   
    16    16    54 1   
    17    17    54 1   
    18    18    55 1   
    19    19    57 1   
    20    20    57 1   
    21    21    56 1   
    22    22    43 1   
    23    23    60 1   
    24    24    59 1   
    25    25    58 1   
    26    26    60 1   
    27    27    58 1   
    28    28    49 1   
    29    29    60 1   
    30    30    32 1   
    31    31    32 1   
    32    32    42 1   
    33    32    44 1   
    34    33    34 2   
    35    33    43 1   
    36    33    45 1   
    37    34    35 1   
    38    34    42 1   
    39    35    36 2   
    40    35    60 1   
    41    36    45 1   
    42    37    44 1   
    43    38    44 1   
    44    39    40 ar  
    45    39    45 1   
    46    39    49 ar  
    47    40    41 ar  
    48    41    47 ar  
    49    42    46 2   
    50    43    44 1   
    51    47    48 ar  
    52    47    50 1   
    53    48    49 ar  
    54    48    52 1   
    55    50    51 1   
    56    50    61 2   
    57    52    53 1   
    58    53    54 1   
    59    53    58 1   
    60    54    55 1   
    61    55    56 1   
    62    56    57 1   
    63    56    59 1   
    64    57    58 1   
@<TRIPOS>SUBSTRUCTURE
     1 74E         1 TEMP              0 ****  ****    0 ROOT
