/web/media/ligands/5LNY_ligand.pdb
 OpenBabel04242009293D

 34 38  0  0  0  0  0  0  0  0999 V2000
   -0.7850   10.5300   27.0760 C   0  0  0  0  0  0  0  0  0  0  0  0
   -1.8310   11.5030   25.0170 C   0  0  0  0  0  0  0  0  0  0  0  0
   -0.5520   12.4360   23.1940 C   0  0  0  0  0  0  0  0  0  0  0  0
    0.6410   12.1150   23.9110 C   0  0  0  0  0  0  0  0  0  0  0  0
    1.7110   12.5670   23.0140 C   0  0  0  0  0  0  0  0  0  0  0  0
    3.1560   12.3810   23.2680 C   0  0  0  0  0  0  0  0  0  0  0  0
    0.5780    8.6330   26.3080 C   0  0  0  0  0  0  0  0  0  0  0  0
    0.8090    7.4990   24.1530 C   0  0  0  0  0  0  0  0  0  0  0  0
    2.7390    7.8850   25.5850 C   0  0  0  0  0  0  0  0  0  0  0  0
    0.0260    8.1460   25.1070 C   0  0  0  0  0  0  0  0  0  0  0  0
   -0.3720    8.5440   28.5420 C   0  0  0  0  0  0  0  0  0  0  0  0
    3.0840    6.7290   23.4790 N   0  0  0  0  0  0  0  0  0  0  0  0
    2.4920    6.1710   22.2290 C   0  0  0  0  0  0  0  0  0  0  0  0
    5.1710    5.4600   23.0670 C   0  0  0  0  0  0  0  0  0  0  0  0
    5.3810   12.8940   24.1640 C   0  0  0  0  0  0  0  0  0  0  0  0
    6.0420   13.4860   25.4180 C   0  0  0  0  0  0  0  0  0  0  0  0
    5.6930   14.9800   25.4940 C   0  0  0  0  0  0  0  0  0  0  0  0
    4.1760   15.1350   25.7210 C   0  0  0  0  0  0  0  0  0  0  0  0
   -0.2150    9.2900   27.2800 N   0  0  0  0  0  0  0  0  0  0  0  0
   -1.5100   11.0400   27.9280 O   0  0  0  0  0  0  0  0  0  0  0  0
   -0.6570   11.2510   25.7730 C   0  0  0  0  0  0  0  0  0  0  0  0
    0.5990   11.5480   25.1840 C   0  0  0  0  0  0  0  0  0  0  0  0
   -1.7860   12.1140   23.7670 C   0  0  0  0  0  0  0  0  0  0  0  0
   -3.0360   11.1990   25.5540 O   0  0  0  0  0  0  0  0  0  0  0  0
    1.1330   13.0290   21.9160 N   0  0  0  0  0  0  0  0  0  0  0  0
   -0.1530   12.9890   21.9910 N   0  0  0  0  0  0  0  0  0  0  0  0
    3.6290   11.3750   22.7580 O   0  0  0  0  0  0  0  0  0  0  0  0
    1.9600    8.5060   26.5450 C   0  0  0  0  0  0  0  0  0  0  0  0
    2.2010    7.3670   24.3940 C   0  0  0  0  0  0  0  0  0  0  0  0
    3.5930    5.6840   21.2640 C   0  0  0  0  0  0  0  0  0  0  0  0
    4.4450    4.8050   22.0130 O   0  0  0  0  0  0  0  0  0  0  0  0
    4.1470    5.9040   24.1250 C   0  0  0  0  0  0  0  0  0  0  0  0
    3.3510   14.4570   24.6110 C   0  0  0  0  0  0  0  0  0  0  0  0
    3.9220   13.2030   24.0450 N   0  0  0  0  0  0  0  0  0  0  0  0
  1 19  1  0  0  0  0
  1 20  2  0  0  0  0
  2 24  1  0  0  0  0
  2 21  1  0  0  0  0
  3 23  1  0  0  0  0
  3  4  1  0  0  0  0
  4 22  1  0  0  0  0
  5  6  1  0  0  0  0
  5  4  2  0  0  0  0
  6 34  1  0  0  0  0
  7 28  1  0  0  0  0
  7 19  1  0  0  0  0
  8 29  2  0  0  0  0
  8 10  1  0  0  0  0
  9 28  2  0  0  0  0
 10  7  2  0  0  0  0
 12 32  1  0  0  0  0
 12 29  1  0  0  0  0
 13 12  1  0  0  0  0
 14 32  1  0  0  0  0
 15 16  1  0  0  0  0
 16 17  1  0  0  0  0
 17 18  1  0  0  0  0
 19 11  1  0  0  0  0
 21  1  1  0  0  0  0
 22 21  2  0  0  0  0
 23  2  2  0  0  0  0
 25 26  1  0  0  0  0
 25  5  1  0  0  0  0
 26  3  2  0  0  0  0
 27  6  2  0  0  0  0
 29  9  1  0  0  0  0
 30 31  1  0  0  0  0
 30 13  1  0  0  0  0
 31 14  1  0  0  0  0
 33 18  1  0  0  0  0
 34 15  1  0  0  0  0
 34 33  1  0  0  0  0
M  END
>  <REMARK>
 800 SITE_DESCRIPTION: binding site for residue 70K A 301                 

>  <HET>
 70K  A 301      34                                                       

>  <HETNAM>
     70K 6-HYDROXY-3-(PIPERIDINE-1-CARBONYL)-1H-INDAZOLE-5-               
   2 70K  CARBOXYLIC ACID METHYL-(4-MORPHOLIN-4-YL-PHENYL)-AMIDE          

>  <FORMUL>
   2  70K    C25 H29 N5 O4                                                

$$$$
