@<TRIPOS>MOLECULE
TCU
   45    46     1     0     0
SMALL
bcc


@<TRIPOS>ATOM
      1 C1          38.2420    -2.7720    17.0400 ca       301 TCU      -0.151000
      2 C2          38.6370    -2.2390    15.7980 ca       301 TCU      -0.047300
      3 C3          39.9420    -2.4350    15.3160 ca       301 TCU      -0.154000
      4 C4          40.8580    -3.1530    16.1000 ca       301 TCU      -0.106000
      5 C5          40.4600    -3.6920    17.3360 ca       301 TCU      -0.001900
      6 C6          39.1610    -3.4920    17.8190 ca       301 TCU       0.132100
      7 O7          41.3880    -4.3790    18.1140 os       301 TCU      -0.260200
      8 C8          41.3120    -5.7730    18.0320 ca       301 TCU       0.102100
      9 C9          40.3970    -6.4460    17.2130 ca       301 TCU      -0.176000
     10 C10         40.3830    -7.8470    17.1990 ca       301 TCU      -0.107000
     11 C11         41.2840    -8.5690    17.9880 ca       301 TCU      -0.149000
     12 C12         42.1970    -7.8970    18.8110 ca       301 TCU      -0.110000
     13 C13         42.2050    -6.4960    18.8240 ca       301 TCU      -0.089300
     14 C14         43.1550    -5.7210    19.7300 c3       301 TCU      -0.046800
     15 C16         37.6210    -1.4900    14.9440 c3       301 TCU      -0.040100
     16 C17         36.5850    -2.4300    14.3260 c3       301 TCU      -0.076400
     17 O17         38.7910    -4.0650    19.0470 oh       301 TCU      -0.492100
     18 C18         35.9980    -2.0880    12.9760 c3       301 TCU      -0.079400
     19 C19         35.6760    -3.2910    12.0960 c3       301 TCU      -0.078400
     20 C20         34.4300    -4.1000    12.4570 c3       301 TCU      -0.080400
     21 C21         33.6220    -4.6390    11.2870 c3       301 TCU      -0.093100
     22 H01         37.2220    -2.6250    17.3960 ha       301 TCU       0.154000
     23 H02         40.2390    -2.0350    14.3470 ha       301 TCU       0.138000
     24 H03         41.8810    -3.2930    15.7500 ha       301 TCU       0.149000
     25 H04         39.7010    -5.8840    16.5910 ha       301 TCU       0.149000
     26 H05         39.6670    -8.3760    16.5710 ha       301 TCU       0.135000
     27 H06         41.2760    -9.6590    17.9630 ha       301 TCU       0.134000
     28 H07         42.8930    -8.4580    19.4340 ha       301 TCU       0.135000
     29 H08         44.0430    -5.4360    19.1650 hc       301 TCU       0.048700
     30 H09         42.6560    -4.8250    20.0990 hc       301 TCU       0.048700
     31 H10         43.4470    -6.3480    20.5730 hc       301 TCU       0.048700
     32 H11         38.1600    -1.0030    14.1310 hc       301 TCU       0.051200
     33 H12         37.1060    -0.7600    15.5680 hc       301 TCU       0.051200
     34 H13         35.7350    -2.3640    15.0050 hc       301 TCU       0.045200
     35 H14         37.0570    -3.4080    14.2310 hc       301 TCU       0.045200
     36 H15         38.8570    -3.4050    19.7410 ho       301 TCU       0.437000
     37 H16         36.7600    -1.5160    12.4460 hc       301 TCU       0.039700
     38 H17         35.0760    -1.5290    13.1380 hc       301 TCU       0.039700
     39 H18         36.5110    -3.9780    12.2380 hc       301 TCU       0.039700
     40 H19         35.5500    -2.9290    11.0760 hc       301 TCU       0.039700
     41 H20         33.7690    -3.4050    12.9740 hc       301 TCU       0.039200
     42 H21         34.7470    -4.9490    13.0630 hc       301 TCU       0.039200
     43 H22         32.7210    -4.0380    11.1610 hc       301 TCU       0.033033
     44 H23         34.2210    -4.5900    10.3780 hc       301 TCU       0.033033
     45 H24         33.3430    -5.6740    11.4830 hc       301 TCU       0.033033
@<TRIPOS>BOND
     1     1     2 ar  
     2     1     6 ar  
     3     1    22 1   
     4     2     3 ar  
     5     2    15 1   
     6     3     4 ar  
     7     3    23 1   
     8     4     5 ar  
     9     4    24 1   
    10     5     6 ar  
    11     5     7 1   
    12     6    17 1   
    13     7     8 1   
    14     8     9 ar  
    15     8    13 ar  
    16     9    10 ar  
    17     9    25 1   
    18    10    11 ar  
    19    10    26 1   
    20    11    12 ar  
    21    11    27 1   
    22    12    13 ar  
    23    12    28 1   
    24    13    14 1   
    25    14    29 1   
    26    14    30 1   
    27    14    31 1   
    28    15    16 1   
    29    15    32 1   
    30    15    33 1   
    31    16    18 1   
    32    16    34 1   
    33    16    35 1   
    34    17    36 1   
    35    18    19 1   
    36    18    37 1   
    37    18    38 1   
    38    19    20 1   
    39    19    39 1   
    40    19    40 1   
    41    20    21 1   
    42    20    41 1   
    43    20    42 1   
    44    21    43 1   
    45    21    44 1   
    46    21    45 1   
@<TRIPOS>SUBSTRUCTURE
     1 TCU         1 TEMP              0 ****  ****    0 ROOT
