@<TRIPOS>MOLECULE
72Y
   36    40     1     0     0
SMALL
bcc


@<TRIPOS>ATOM
      1 H13          1.5280    13.4800    25.0270 hc         0 72Y       0.096000
      2 H15          1.8460    14.4590    23.5760 hc         0 72Y       0.096000
      3 H06          0.0720    11.9140    23.3150 hn         0 72Y       0.213000
      4 H12          7.5020    14.5530    26.3060 hc         0 72Y       0.096000
      5 H02          3.9270     9.9130    25.6070 h4         0 72Y       0.184000
      6 H01          2.2050     9.0870    27.4090 ha         0 72Y       0.164000
      7 H05         -0.1020    10.3540    25.6170 DU         0 72Y       0.137000
      8 H04          2.1050    12.0820    22.9220 h1         0 72Y       0.116000
      9 H03          3.3130    10.7710    22.8340 h1         0 72Y       0.116000
     10 H11          6.8950    15.9110    25.3280 hc         0 72Y       0.096000
     11 H09          7.1940    12.3910    24.1840 h4         0 72Y       0.168000
     12 H08         -2.2150    12.1540    23.0690 hn         0 72Y       0.199000
     13 H07         -3.3290    11.6130    24.3040 hn         0 72Y       0.199000
     14 H10          8.0100    14.7250    24.6090 hc         0 72Y       0.096000
     15 H14          2.1500    15.1390    25.1930 hc         0 72Y       0.096000
     16 C           -1.3500    11.2760    24.7030 c2         0 72Y       0.187000
     17 C1           1.9780     9.6790    26.5220 c2         0 72Y      -0.142000
     18 C2           0.6840    10.1570    26.1140 c3         0 72Y      -0.206000
     19 N           -1.6430    10.6720    25.8880 n2         0 72Y      -0.275000
     20 C3           0.8600    10.8480    24.9170 c3         0 72Y       0.013000
     21 C4           2.8550    10.1080    25.5900 c2         0 72Y      -0.123000
     22 C5           2.8500    11.5160    23.4810 c3         0 72Y       0.029000
     23 C6           3.9180    12.4600    23.9900 c2         0 72Y      -0.051000
     24 C7           3.5990    13.7050    24.5440 c2         0 72Y      -0.080000
     25 C8           4.6890    14.4540    24.9780 c2         0 72Y      -0.036000
     26 C9          -0.6270    10.1470    26.5490 c3         0 72Y       0.121000
     27 Cl          -1.0030     9.4210    28.0750 cl         0 72Y      -0.161000
     28 N1          -0.1090    11.4220    24.1780 n3         0 72Y      -0.252000
     29 N2          -2.3840    11.7180    23.9640 n3         0 72Y      -0.315000
     30 N3           2.1970    10.8330    24.6080 n3         0 72Y      -0.131000
     31 C10          6.0140    14.0230    24.8720 c2         0 72Y      -0.095000
     32 C11          6.1770    12.7660    24.2990 c2         0 72Y      -0.066000
     33 N4           5.1720    11.9820    23.8780 n2         0 72Y      -0.126000
     34 Cl1          4.4200    16.0150    25.6950 cl         0 72Y       0.005000
     35 C12          7.1860    14.8610    25.3090 c3         0 72Y      -0.181000
     36 C13          2.1820    14.2330    24.5880 c3         0 72Y      -0.189000
@<TRIPOS>BOND
     1     1    36 1   
     2     2    36 1   
     3     3    28 1   
     4     4    35 1   
     5     5    21 1   
     6     6    17 1   
     7     7    18 1   
     8     7    20 1   
     9     7    26 1   
    10     8    22 1   
    11     9    22 1   
    12    10    35 1   
    13    11    32 1   
    14    12    29 1   
    15    13    29 1   
    16    14    35 1   
    17    15    36 1   
    18    16    19 1   
    19    16    28 1   
    20    16    29 1   
    21    17    18 1   
    22    17    21 1   
    23    18    20 1   
    24    18    26 1   
    25    19    26 1   
    26    20    28 1   
    27    20    30 1   
    28    21    30 1   
    29    22    23 1   
    30    22    30 1   
    31    23    24 1   
    32    23    33 1   
    33    24    25 1   
    34    24    36 1   
    35    25    31 1   
    36    25    34 1   
    37    26    27 1   
    38    31    32 1   
    39    31    35 1   
    40    32    33 1   
@<TRIPOS>SUBSTRUCTURE
     1 72Y         1 TEMP              0 ****  ****    0 ROOT
