@<TRIPOS>MOLECULE
72Y
   34    36     1     0     0
SMALL
bcc


@<TRIPOS>ATOM
      1 CL1          4.4200    16.0150    25.6950 cl      4000 72Y      -0.077400
      2 CL3         -1.0030     9.4210    28.0750 cl      4000 72Y      -0.142000
      3 C1          -0.6270    10.1470    26.5490 ca      4000 72Y       0.603300
      4 N2          -1.6430    10.6720    25.8880 nb      4000 72Y      -0.758000
      5 C4          -1.3500    11.2760    24.7030 ca      4000 72Y       0.883900
      6 N5          -0.1090    11.4220    24.1780 nb      4000 72Y      -0.771000
      7 N6          -2.3840    11.7180    23.9640 nh      4000 72Y      -0.919500
      8 C7           1.9780     9.6790    26.5220 cc      4000 72Y      -0.146200
      9 C8           0.6840    10.1570    26.1140 ca      4000 72Y      -0.351400
     10 C9           0.8600    10.8480    24.9170 ca      4000 72Y       0.492800
     11 N10          2.1970    10.8330    24.6080 na      4000 72Y      -0.171100
     12 C11          2.8550    10.1080    25.5900 cd      4000 72Y      -0.094100
     13 C12          2.8500    11.5160    23.4810 c3      4000 72Y       0.000000
     14 C13          3.9180    12.4600    23.9900 ca      4000 72Y       0.367600
     15 C14          3.5990    13.7050    24.5440 ca      4000 72Y      -0.145600
     16 C15          4.6890    14.4540    24.9780 ca      4000 72Y       0.039400
     17 C16          6.0140    14.0230    24.8720 ca      4000 72Y      -0.170600
     18 C17          6.1770    12.7660    24.2990 ca      4000 72Y       0.398200
     19 N18          5.1720    11.9820    23.8780 nb      4000 72Y      -0.658000
     20 C20          7.1860    14.8610    25.3090 c3      4000 72Y      -0.053800
     21 C21          2.1820    14.2330    24.5880 c3      4000 72Y      -0.070800
     22 H01         -3.3290    11.6130    24.3040 hn      4000 72Y       0.423300
     23 H02         -2.2150    12.1540    23.0690 hn      4000 72Y       0.423300
     24 H03          2.2050     9.0870    27.4090 ha      4000 72Y       0.166000
     25 H04          3.9270     9.9130    25.6070 h4      4000 72Y       0.186000
     26 H05          2.1030    12.0880    22.9310 h1      4000 72Y       0.083200
     27 H06          3.3070    10.7750    22.8250 h1      4000 72Y       0.083200
     28 H07          7.1940    12.3910    24.1840 h4      4000 72Y       0.029100
     29 H08          8.0100    14.7250    24.6090 hc      4000 72Y       0.055367
     30 H09          6.8950    15.9110    25.3280 hc      4000 72Y       0.055367
     31 H10          7.5020    14.5530    26.3060 hc      4000 72Y       0.055367
     32 H11          1.5280    13.4800    25.0270 hc      4000 72Y       0.062700
     33 H12          2.1500    15.1390    25.1930 hc      4000 72Y       0.062700
     34 H13          1.8460    14.4590    23.5760 hc      4000 72Y       0.062700
@<TRIPOS>BOND
     1     1    16 1   
     2     2     3 1   
     3     3     4 ar  
     4     3     9 ar  
     5     4     5 ar  
     6     5     6 ar  
     7     5     7 1   
     8     6    10 ar  
     9     7    22 1   
    10     7    23 1   
    11     8     9 1   
    12     8    12 2   
    13     8    24 1   
    14     9    10 ar  
    15    10    11 1   
    16    11    12 1   
    17    11    13 1   
    18    12    25 1   
    19    13    14 1   
    20    13    26 1   
    21    13    27 1   
    22    14    15 ar  
    23    14    19 ar  
    24    15    16 ar  
    25    15    21 1   
    26    16    17 ar  
    27    17    18 ar  
    28    17    20 1   
    29    18    19 ar  
    30    18    28 1   
    31    20    29 1   
    32    20    30 1   
    33    20    31 1   
    34    21    32 1   
    35    21    33 1   
    36    21    34 1   
@<TRIPOS>SUBSTRUCTURE
     1 72Y         1 TEMP              0 ****  ****    0 ROOT
