@<TRIPOS>MOLECULE
72Y
   34    38     1     0     0
SMALL
bcc


@<TRIPOS>ATOM
      1 H13          1.5280    13.4800    25.0270 hc         0 72Y       0.089667
      2 H15          1.8460    14.4590    23.5760 hc         0 72Y       0.089667
      3 H06          0.0720    11.9140    23.3150 hn         0 72Y       0.217000
      4 H12          7.5020    14.5530    26.3060 hc         0 72Y       0.092333
      5 H02          3.9270     9.9130    25.6070 h4         0 72Y       0.183000
      6 H01          2.2050     9.0870    27.4090 ha         0 72Y       0.181000
      7 H05         -0.1020    10.3540    25.6170 DU         0 72Y       0.171000
      8 H04          2.1050    12.0820    22.9220 h1         0 72Y       0.116500
      9 H03          3.3130    10.7710    22.8340 h1         0 72Y       0.116500
     10 H11          6.8950    15.9110    25.3280 hc         0 72Y       0.092333
     11 H09          7.1940    12.3910    24.1840 h4         0 72Y       0.167000
     12 H08         -2.2150    12.1540    23.0690 hn         0 72Y       0.168000
     13 H07         -3.3290    11.6130    24.3040 hn         0 72Y       0.168000
     14 H10          8.0100    14.7250    24.6090 hc         0 72Y       0.092333
     15 H14          2.1500    15.1390    25.1930 hc         0 72Y       0.089667
     16 C           -1.3500    11.2760    24.7030 c2         0 72Y       0.132000
     17 C1           1.9780     9.6790    26.5220 c2         0 72Y      -0.170000
     18 C2           0.6840    10.1570    26.1140 c3         0 72Y      -0.045000
     19 N           -1.6430    10.6720    25.8880 n2         0 72Y      -0.227000
     20 C3           0.8600    10.8480    24.9170 c3         0 72Y       0.130000
     21 C4           2.8550    10.1080    25.5900 c2         0 72Y      -0.063000
     22 C5           2.8500    11.5160    23.4810 c3         0 72Y       0.017000
     23 C6           3.9180    12.4600    23.9900 c2         0 72Y      -0.079000
     24 C7           3.5990    13.7050    24.5440 c2         0 72Y      -0.098000
     25 C8           4.6890    14.4540    24.9780 c1         0 72Y      -0.096000
     26 C9          -0.6270    10.1470    26.5490 c2         0 72Y      -0.154000
     27 N1          -0.1090    11.4220    24.1780 n3         0 72Y      -0.220000
     28 N2          -2.3840    11.7180    23.9640 n3         0 72Y      -0.305000
     29 N3           2.1970    10.8330    24.6080 n3         0 72Y      -0.204000
     30 C10          6.0140    14.0230    24.8720 c2         0 72Y      -0.097000
     31 C11          6.1770    12.7660    24.2990 c2         0 72Y      -0.066000
     32 N4           5.1720    11.9820    23.8780 n2         0 72Y      -0.125000
     33 C12          7.1860    14.8610    25.3090 c3         0 72Y      -0.181000
     34 C13          2.1820    14.2330    24.5880 c3         0 72Y      -0.181000
@<TRIPOS>BOND
     1     1    34 1   
     2     2    34 1   
     3     3    27 1   
     4     4    33 1   
     5     5    21 1   
     6     6    17 1   
     7     7    18 1   
     8     7    20 1   
     9     7    26 1   
    10     8    22 1   
    11     9    22 1   
    12    10    33 1   
    13    11    31 1   
    14    12    28 1   
    15    13    28 1   
    16    14    33 1   
    17    15    34 1   
    18    16    19 1   
    19    16    27 1   
    20    16    28 1   
    21    17    18 1   
    22    17    21 1   
    23    18    20 1   
    24    18    26 1   
    25    19    26 1   
    26    20    27 1   
    27    20    29 1   
    28    21    29 1   
    29    22    23 1   
    30    22    29 1   
    31    23    24 1   
    32    23    32 1   
    33    24    25 1   
    34    24    34 1   
    35    25    30 1   
    36    30    31 1   
    37    30    33 1   
    38    31    32 1   
@<TRIPOS>SUBSTRUCTURE
     1 72Y         1 TEMP              0 ****  ****    0 ROOT
