/web/media/ligands/6ELP_ligand.pdb
 OpenBabel04242009293D

 28 31  0  0  0  0  0  0  0  0999 V2000
    1.2430   33.7370   25.6920 C   0  0  0  0  0  0  0  0  0  0  0  0
    0.0670   33.3460   26.3560 C   0  0  0  0  0  0  0  0  0  0  0  0
   -1.1860   33.7240   25.8570 C   0  0  0  0  0  0  0  0  0  0  0  0
   -0.1110   35.8300   22.8520 C   0  0  0  0  0  0  0  0  0  0  0  0
   -0.6690   35.6420   21.6070 C   0  0  0  0  0  0  0  0  0  0  0  0
   -0.3960   36.7870   20.8510 C   0  0  0  0  0  0  0  0  0  0  0  0
    1.0910   37.6900   23.9870 C   0  0  0  0  0  0  0  0  0  0  0  0
    2.4810   37.6350   24.1380 C   0  0  0  0  0  0  0  0  0  0  0  0
    3.1170   38.1740   25.2670 C   0  0  0  0  0  0  0  0  0  0  0  0
    2.3380   38.7410   26.2720 C   0  0  0  0  0  0  0  0  0  0  0  0
    2.6130   33.2690   26.1810 C   0  0  0  0  0  0  0  0  0  0  0  0
    6.2470   30.2720   25.1000 C   0  0  0  0  0  0  0  0  0  0  0  0
    7.0470   32.3700   25.9850 C   0  0  0  0  0  0  0  0  0  0  0  0
    5.8340   32.9030   25.8110 N   0  0  0  0  0  0  0  0  0  0  0  0
    4.9940   30.8810   24.9090 C   0  0  0  0  0  0  0  0  0  0  0  0
   -1.2790   34.5260   24.7160 C   0  0  0  0  0  0  0  0  0  0  0  0
   -0.1090   34.9220   24.0330 C   0  0  0  0  0  0  0  0  0  0  0  0
    1.1400   34.5120   24.5430 C   0  0  0  0  0  0  0  0  0  0  0  0
    0.1340   32.6520   27.5230 O   0  0  0  0  0  0  0  0  0  0  0  0
    0.2890   37.6280   21.5810 N   0  0  0  0  0  0  0  0  0  0  0  0
    0.4570   37.0840   22.8660 N   0  0  0  0  0  0  0  0  0  0  0  0
    0.9450   38.7840   26.1310 C   0  0  0  0  0  0  0  0  0  0  0  0
    0.3130   38.2250   25.0270 C   0  0  0  0  0  0  0  0  0  0  0  0
    3.4130   36.8970   22.8810 Cl  0  0  0  0  0  0  0  0  0  0  0  0
   -2.5090   34.8400   24.2490 O   0  0  0  0  0  0  0  0  0  0  0  0
    7.2900   31.0400   25.6300 C   0  0  0  0  0  0  0  0  0  0  0  0
    4.8150   32.2080   25.3050 C   0  0  0  0  0  0  0  0  0  0  0  0
    3.4960   32.8810   24.9890 C   0  0  0  0  0  0  0  0  0  0  0  0
  1 11  1  0  0  0  0
  1  2  2  0  0  0  0
  2 19  1  0  0  0  0
  3  2  1  0  0  0  0
  4 21  1  0  0  0  0
  4 17  1  0  0  0  0
  5  4  2  0  0  0  0
  6 20  2  0  0  0  0
  6  5  1  0  0  0  0
  7  8  2  0  0  0  0
  7 23  1  0  0  0  0
  8  9  1  0  0  0  0
  9 10  2  0  0  0  0
 12 26  1  0  0  0  0
 14 13  1  0  0  0  0
 15 12  2  0  0  0  0
 15 27  1  0  0  0  0
 16  3  2  0  0  0  0
 17 18  2  0  0  0  0
 17 16  1  0  0  0  0
 18  1  1  0  0  0  0
 20 21  1  0  0  0  0
 21  7  1  0  0  0  0
 22 10  1  0  0  0  0
 23 22  2  0  0  0  0
 24  8  1  0  0  0  0
 25 16  1  0  0  0  0
 26 13  2  0  0  0  0
 27 14  2  0  0  0  0
 28 27  1  0  0  0  0
 28 11  1  0  0  0  0
M  END
>  <REMARK>
 800 SITE_DESCRIPTION: binding site for residue BA8 A 301                 

>  <HET>
 BA8  A 301      28                                                       

>  <HETNAM>
     BA8 4-[2-(2-CHLOROPHENYL)PYRAZOL-3-YL]-6-(2-PYRIDIN-2-               
   2 BA8  YLETHYL)BENZENE-1,3-DIOL                                        

>  <FORMUL>
   2  BA8    C22 H18 CL N3 O2                                             

$$$$
