REMARK  Name = /web/media/ligands/6ELP_ligand.pdb
REMARK  5 active torsions:
REMARK  status: ('A' for Active; 'I' for Inactive)
REMARK    1  A    between atoms: C_1  and  C_11
REMARK    2  A    between atoms: C_4  and  C_17
REMARK    3  A    between atoms: C_7  and  N_21
REMARK    4  A    between atoms: C_11  and  C_28
REMARK    5  A    between atoms: C_27  and  C_28
REMARK                            x       y       z     vdW  Elec       q    Type
REMARK                         _______ _______ _______ _____ _____    ______ ____
ROOT
ATOM      1  C   UNL     1       1.243  33.737  25.692  0.00  0.00    +0.017 A 
ATOM      2  C   UNL     1       1.140  34.512  24.543  0.00  0.00    +0.004 A 
ATOM      3  C   UNL     1      -0.109  34.922  24.033  0.00  0.00    +0.057 A 
ATOM      4  C   UNL     1      -1.279  34.526  24.716  0.00  0.00    +0.200 A 
ATOM      5  O   UNL     1      -2.509  34.840  24.249  0.00  0.00    -0.286 OA
ATOM      6  C   UNL     1      -1.186  33.724  25.857  0.00  0.00    +0.084 A 
ATOM      7  C   UNL     1       0.067  33.346  26.356  0.00  0.00    +0.195 A 
ATOM      8  O   UNL     1       0.134  32.652  27.523  0.00  0.00    -0.287 OA
ENDROOT
BRANCH   3   9
ATOM      9  C   UNL     1      -0.111  35.830  22.852  0.00  0.00    +0.087 A 
ATOM     10  C   UNL     1      -0.669  35.642  21.607  0.00  0.00    +0.042 A 
ATOM     11  C   UNL     1      -0.396  36.787  20.851  0.00  0.00    +0.122 A 
ATOM     12  N   UNL     1       0.289  37.628  21.581  0.00  0.00    -0.163 NA
ATOM     13  N   UNL     1       0.457  37.084  22.866  0.00  0.00    -0.229 N 
BRANCH  13  14
ATOM     14  C   UNL     1       1.091  37.690  23.987  0.00  0.00    +0.093 A 
ATOM     15  C   UNL     1       0.313  38.225  25.027  0.00  0.00    +0.020 A 
ATOM     16  C   UNL     1       0.945  38.784  26.131  0.00  0.00    +0.002 A 
ATOM     17  C   UNL     1       2.338  38.741  26.272  0.00  0.00    +0.001 A 
ATOM     18  C   UNL     1       3.117  38.174  25.267  0.00  0.00    +0.013 A 
ATOM     19  C   UNL     1       2.481  37.635  24.138  0.00  0.00    +0.075 A 
ATOM     20 CL   UNL     1       3.413  36.897  22.881  0.00  0.00    -0.081 Cl
ENDBRANCH  13  14
ENDBRANCH   3   9
BRANCH   1  21
ATOM     21  C   UNL     1       2.613  33.269  26.181  0.00  0.00    +0.036 C 
BRANCH  21  22
ATOM     22  C   UNL     1       3.496  32.881  24.989  0.00  0.00    +0.051 C 
BRANCH  22  23
ATOM     23  C   UNL     1       4.815  32.208  25.305  0.00  0.00    +0.059 A 
ATOM     24  N   UNL     1       5.834  32.903  25.811  0.00  0.00    -0.248 NA
ATOM     25  C   UNL     1       7.047  32.370  25.985  0.00  0.00    +0.098 A 
ATOM     26  C   UNL     1       7.290  31.040  25.630  0.00  0.00    +0.021 A 
ATOM     27  C   UNL     1       6.247  30.272  25.100  0.00  0.00    +0.003 A 
ATOM     28  C   UNL     1       4.994  30.881  24.909  0.00  0.00    +0.015 A 
ENDBRANCH  22  23
ENDBRANCH  21  22
ENDBRANCH   1  21
TORSDOF 5
