REMARK  Name = /web/media/ligands/5UGS_ligand.pdb
REMARK  10 active torsions:
REMARK  status: ('A' for Active; 'I' for Inactive)
REMARK    1  A    between atoms: C_3  and  C_4
REMARK    2  A    between atoms: N_8  and  C_9
REMARK    3  A    between atoms: C_9  and  C_10
REMARK    4  A    between atoms: C_16  and  O_17
REMARK    5  A    between atoms: O_17  and  C_18
REMARK    6  A    between atoms: C_27  and  C_28
REMARK    7  A    between atoms: N_32  and  C_33
REMARK    8  A    between atoms: C_33  and  C_34
REMARK    9  A    between atoms: C_40  and  O_41
REMARK   10  A    between atoms: O_41  and  C_42
REMARK                            x       y       z     vdW  Elec       q    Type
REMARK                         _______ _______ _______ _____ _____    ______ ____
ROOT
ATOM      1  C   UNL     1      30.626 -28.929 -60.737  0.00  0.00    +0.006 A 
ATOM      2  C   UNL     1      30.440 -28.353 -61.994  0.00  0.00    +0.001 A 
ATOM      3  C   UNL     1      29.809 -29.036 -63.022  0.00  0.00    +0.041 A 
ATOM      4  C   UNL     1      29.347 -30.316 -62.791  0.00  0.00    +0.184 A 
ATOM      5  C   UNL     1      29.532 -30.926 -61.554  0.00  0.00    +0.230 A 
ATOM      6  O   UNL     1      29.040 -32.175 -61.386  0.00  0.00    -0.283 OA
ATOM      7  C   UNL     1      30.169 -30.241 -60.528  0.00  0.00    +0.043 A 
ENDROOT
BRANCH   1   8
ATOM      8  C   UNL     1      31.266 -28.213 -59.703  0.00  0.00    +0.156 C 
BRANCH   8  12
ATOM      9  C   UNL     1      28.823 -26.513 -57.779  0.00  0.00    +0.100 A 
ATOM     10  N   UNL     1      29.338 -25.666 -58.612  0.00  0.00    -0.133 NA
ATOM     11  N   UNL     1      30.115 -26.231 -59.230  0.00  0.00    -0.064 NA
ATOM     12  N   UNL     1      30.247 -27.416 -58.964  0.00  0.00    -0.226 N 
ATOM     13  C   UNL     1      29.406 -27.667 -57.975  0.00  0.00    +0.114 A 
BRANCH   9  15
ATOM     14  C   UNL     1      27.921 -24.941 -56.043  0.00  0.00    +0.006 C 
ATOM     15  C   UNL     1      27.767 -26.157 -56.776  0.00  0.00    +0.044 C 
ATOM     16  C   UNL     1      28.205 -26.186 -55.431  0.00  0.00    +0.006 C 
ENDBRANCH   9  15
ENDBRANCH   8  12
ENDBRANCH   1   8
BRANCH   4  17
ATOM     17  O   UNL     1      28.702 -31.010 -63.758  0.00  0.00    -0.451 OA
BRANCH  17  18
ATOM     18  C   UNL     1      27.310 -31.006 -63.716  0.00  0.00    +0.141 A 
ATOM     19  C   UNL     1      26.626 -31.653 -64.776  0.00  0.00    +0.013 A 
ATOM     20  C   UNL     1      27.307 -32.229 -65.865  0.00  0.00    +0.034 C 
ATOM     21  C   UNL     1      25.222 -31.686 -64.780  0.00  0.00    -0.001 A 
ATOM     22  C   UNL     1      24.494 -31.103 -63.748  0.00  0.00    -0.000 A 
ATOM     23  C   UNL     1      25.180 -30.490 -62.704  0.00  0.00    +0.003 A 
ATOM     24  C   UNL     1      26.562 -30.446 -62.684  0.00  0.00    +0.037 A 
ENDBRANCH  17  18
ENDBRANCH   4  17
TORSDOF 5
REMARK  Name = /web/media/ligands/5UGS_ligand.pdb
REMARK  10 active torsions:
REMARK  status: ('A' for Active; 'I' for Inactive)
REMARK    1  A    between atoms: C_3  and  C_4
REMARK    2  A    between atoms: N_8  and  C_9
REMARK    3  A    between atoms: C_9  and  C_10
REMARK    4  A    between atoms: C_16  and  O_17
REMARK    5  A    between atoms: O_17  and  C_18
REMARK    6  A    between atoms: C_27  and  C_28
REMARK    7  A    between atoms: N_32  and  C_33
REMARK    8  A    between atoms: C_33  and  C_34
REMARK    9  A    between atoms: C_40  and  O_41
REMARK   10  A    between atoms: O_41  and  C_42
REMARK                            x       y       z     vdW  Elec       q    Type
REMARK                         _______ _______ _______ _____ _____    ______ ____
ROOT
ATOM      1  C   UNL     1      28.782 -23.504 -76.604  0.00  0.00    +0.006 A 
ATOM      2  C   UNL     1      30.098 -23.034 -76.688  0.00  0.00    +0.043 A 
ATOM      3  C   UNL     1      30.618 -22.146 -75.742  0.00  0.00    +0.230 A 
ATOM      4  O   UNL     1      31.909 -21.665 -75.852  0.00  0.00    -0.283 OA
ATOM      5  C   UNL     1      29.824 -21.718 -74.661  0.00  0.00    +0.184 A 
ATOM      6  C   UNL     1      28.498 -22.203 -74.558  0.00  0.00    +0.041 A 
ATOM      7  C   UNL     1      27.984 -23.085 -75.512  0.00  0.00    +0.001 A 
ENDROOT
BRANCH   1   8
ATOM      8  C   UNL     1      28.388 -24.409 -77.639  0.00  0.00    +0.156 C 
BRANCH   8  12
ATOM      9  C   UNL     1      25.116 -25.415 -77.147  0.00  0.00    +0.100 A 
ATOM     10  N   UNL     1      25.040 -24.251 -77.766  0.00  0.00    -0.133 NA
ATOM     11  N   UNL     1      26.214 -23.883 -77.961  0.00  0.00    -0.064 NA
ATOM     12  N   UNL     1      27.029 -24.680 -77.521  0.00  0.00    -0.226 N 
ATOM     13  C   UNL     1      26.397 -25.711 -76.964  0.00  0.00    +0.114 A 
BRANCH   9  15
ATOM     14  C   UNL     1      23.474 -26.151 -75.417  0.00  0.00    +0.006 C 
ATOM     15  C   UNL     1      23.861 -26.233 -76.760  0.00  0.00    +0.044 C 
ATOM     16  C   UNL     1      23.989 -27.382 -75.944  0.00  0.00    +0.006 C 
ENDBRANCH   9  15
ENDBRANCH   8  12
ENDBRANCH   1   8
BRANCH   5  17
ATOM     17  O   UNL     1      30.436 -20.830 -73.777  0.00  0.00    -0.451 OA
BRANCH  17  18
ATOM     18  C   UNL     1      30.118 -20.981 -72.464  0.00  0.00    +0.141 A 
ATOM     19  C   UNL     1      30.721 -21.999 -71.720  0.00  0.00    +0.037 A 
ATOM     20  C   UNL     1      30.355 -22.115 -70.376  0.00  0.00    +0.003 A 
ATOM     21  C   UNL     1      29.401 -21.236 -69.809  0.00  0.00    -0.000 A 
ATOM     22  C   UNL     1      28.797 -20.212 -70.569  0.00  0.00    -0.001 A 
ATOM     23  C   UNL     1      29.171 -20.096 -71.907  0.00  0.00    +0.013 A 
ATOM     24  C   UNL     1      28.575 -19.081 -72.614  0.00  0.00    +0.034 C 
ENDBRANCH  17  18
ENDBRANCH   5  17
TORSDOF 5
