@<TRIPOS>MOLECULE
/web/media/ligands/5LO6_ligand.pdb
 33 36 0 0 0
SMALL
GASTEIGER

@<TRIPOS>ATOM
      1 C           1.4890    8.3780   26.6840 C.ar    1  UNL1        0.0146
      2 C           0.1340    8.7010   26.4590 C.ar    1  UNL1        0.0541
      3 C          -0.4820    8.2820   25.2730 C.ar    1  UNL1        0.0146
      4 C           2.2320    6.4010   23.4750 C.3     1  UNL1        0.0251
      5 C          -0.8320    8.7460   28.7150 C.3     1  UNL1        0.1203
      6 C          -1.2080   10.6330   27.1890 C.2     1  UNL1        0.2559
      7 C          -1.0620   11.3410   25.8850 C.ar    1  UNL1        0.0929
      8 C           0.2120   11.6930   25.4110 C.ar    1  UNL1        0.0105
      9 C          -2.0820   12.1730   23.8220 C.ar    1  UNL1        0.0631
     10 C          -2.2020   11.5970   25.0750 C.ar    1  UNL1        0.2016
     11 C           1.4780   12.7010   23.3410 C.ar    1  UNL1        0.0820
     12 C           2.9260   12.6630   23.7760 C.3     1  UNL1        0.0477
     13 C           4.7330   14.0110   25.1720 C.3     1  UNL1        0.0004
     14 C           3.8660    3.8420   20.6660 C.3     1  UNL1        0.0896
     15 C           5.8230   13.7670   24.1080 C.3     1  UNL1        0.0000
     16 C           5.0240   15.4130   25.7290 C.3     1  UNL1        0.0000
     17 C           4.9090   13.0020   26.3260 C.3     1  UNL1        0.0000
     18 C           0.2300    7.5690   24.3260 C.ar    1  UNL1       -0.0030
     19 C           1.5640    7.2530   24.5400 C.ar    1  UNL1       -0.0223
     20 C           2.1930    7.6470   25.7320 C.ar    1  UNL1       -0.0030
     21 N          -0.6310    9.4090   27.4180 N.am    1  UNL1       -0.2533
     22 O          -1.8630   11.1510   28.0730 O.2     1  UNL1       -0.2695
     23 O          -3.4450   11.3380   25.5400 O.3     1  UNL1       -0.2864
     24 C          -0.8160   12.4980   23.3250 C.ar    1  UNL1        0.1072
     25 C           0.3340   12.2520   24.1280 C.ar    1  UNL1        0.0350
     26 N           1.0030   13.1440   22.2060 N.ar    1  UNL1       -0.1523
     27 N          -0.3890   13.0420   22.1370 N.ar    1  UNL1       -0.1482
     28 C           3.2810   13.9320   24.6000 C.3     1  UNL1        0.0064
     29 C           3.6850    6.7500   23.1160 C.3     1  UNL1        0.0217
     30 C           4.0790    5.9200   21.8810 C.3     1  UNL1        0.0725
     31 N           3.7910    4.4620   22.0000 N.3     1  UNL1       -0.2715
     32 C           2.5100    4.0600   22.6300 C.3     1  UNL1        0.0725
     33 C           2.1690    4.9110   23.8610 C.3     1  UNL1        0.0217
@<TRIPOS>BOND
     1     2     1   ar
     2     2    21    1
     3     3     2   ar
     4     4    33    1
     5     4    19    1
     6     6    21   am
     7     6    22    2
     8     7     6    1
     9     8     7   ar
    10     9    10   ar
    11    10    23    1
    12    10     7   ar
    13    11    12    1
    14    11    25   ar
    15    12    28    1
    16    13    16    1
    17    13    17    1
    18    14    31    1
    19    15    13    1
    20    18    19   ar
    21    18     3   ar
    22    19    20   ar
    23    20     1   ar
    24    21     5    1
    25    24     9   ar
    26    24    25   ar
    27    25     8   ar
    28    26    11   ar
    29    27    26   ar
    30    27    24   ar
    31    28    13    1
    32    29     4    1
    33    30    31    1
    34    30    29    1
    35    31    32    1
    36    32    33    1
