@<TRIPOS>MOLECULE
/web/media/ligands/6EYB_ligand.pdb
 28 32 0 0 0
SMALL
GASTEIGER

@<TRIPOS>ATOM
      1 C          65.1030   33.1410   25.6100 C.ar    1  UNL1        0.0630
      2 C          65.1050   33.8540   24.4180 C.ar    1  UNL1        0.1987
      3 C          66.3170   34.2320   23.7890 C.ar    1  UNL1        0.0568
      4 C          65.9630   35.9030   20.5420 C.ar    1  UNL1        0.1221
      5 C          67.7310   36.9690   23.4400 C.ar    1  UNL1        0.0828
      6 C          69.0900   37.1780   23.1490 C.ar    1  UNL1        0.0191
      7 C          69.9280   37.7650   24.1040 C.ar    1  UNL1        0.0015
      8 C          69.4170   38.1250   25.3540 C.ar    1  UNL1        0.0001
      9 C          68.0660   37.9070   25.6490 C.ar    1  UNL1        0.0015
     10 C          67.2200   37.3400   24.6980 C.ar    1  UNL1        0.0191
     11 C          68.6440   32.5660   26.3210 C.ar    1  UNL1        0.0864
     12 C          70.1180   32.7520   26.0280 C.3     1  UNL1        0.0739
     13 C          70.7860   30.4410   25.2230 C.ar    1  UNL1       -0.0039
     14 C          71.4180   29.6040   24.2990 C.ar    1  UNL1       -0.0003
     15 C          67.5400   33.8320   24.3200 C.ar    1  UNL1        0.0075
     16 C          66.3190   35.0920   22.5820 C.ar    1  UNL1        0.0874
     17 C          65.7020   34.8290   21.3940 C.ar    1  UNL1        0.0417
     18 N          66.7020   36.7810   21.1690 N.ar    1  UNL1       -0.1635
     19 N          66.9190   36.3270   22.4730 N.ar    1  UNL1       -0.2295
     20 O          63.9330   34.2390   23.8710 O.3     1  UNL1       -0.2865
     21 C          66.3480   32.7530   26.1600 C.ar    1  UNL1        0.1072
     22 C          67.5620   33.1020   25.5110 C.ar    1  UNL1        0.0353
     23 N          68.1080   32.0480   27.4080 N.ar    1  UNL1       -0.1520
     24 N          66.7200   32.0960   27.3130 N.ar    1  UNL1       -0.1482
     25 C          70.7190   31.8160   24.9990 C.ar    1  UNL1       -0.0161
     26 C          72.0010   30.1350   23.1500 C.ar    1  UNL1       -0.0000
     27 C          71.9580   31.5150   22.9310 C.ar    1  UNL1       -0.0003
     28 C          71.3280   32.3490   23.8600 C.ar    1  UNL1       -0.0039
@<TRIPOS>BOND
     1     1    21   ar
     2     2     1   ar
     3     3    15   ar
     4     3     2   ar
     5     4    18   ar
     6     4    17   ar
     7     5    10   ar
     8     6     5   ar
     9     6     7   ar
    10     7     8   ar
    11     8     9   ar
    12    10     9   ar
    13    11    23   ar
    14    12    11    1
    15    14    13   ar
    16    15    22   ar
    17    16     3    1
    18    17    16   ar
    19    18    19   ar
    20    19    16   ar
    21    19     5    1
    22    20     2    1
    23    21    24   ar
    24    22    21   ar
    25    22    11   ar
    26    24    23   ar
    27    25    13   ar
    28    25    12    1
    29    26    14   ar
    30    27    26   ar
    31    27    28   ar
    32    28    25   ar
