@<TRIPOS>MOLECULE
C4T
   49    52     1     0     0
SMALL
bcc


@<TRIPOS>ATOM
      1 H03          3.6240    32.3010    26.7300 hc         0 C4T       0.068200
      2 H13          2.1370    36.0850    21.8960 ha         0 C4T       0.143500
      3 H17          5.4730    29.3240    22.1830 ha         0 C4T       0.132000
      4 H18          4.5860    28.3730    24.2970 ha         0 C4T       0.130500
      5 H16         -0.8900    31.6330    27.8680 hn         0 C4T       0.320700
      6 H19          2.8510    37.0790    26.7340 ha         0 C4T       0.150500
      7 H02         -3.5140    33.1440    23.2450 ho         0 C4T       0.457000
      8 H01         -2.8110    32.6280    25.9980 ha         0 C4T       0.163000
      9 H08         -0.5280    37.5750    20.8910 h1         0 C4T       0.051033
     10 H07          3.4320    29.8410    25.9330 ha         0 C4T       0.135000
     11 H06          5.2890    31.7700    21.7390 ha         0 C4T       0.130500
     12 H05          4.1800    33.2510    23.4080 ha         0 C4T       0.135000
     13 H04          3.2880    33.5820    25.4620 hc         0 C4T       0.068200
     14 H20          0.5720    37.2630    25.7400 ha         0 C4T       0.143500
     15 H11         -0.2960    37.7500    22.8720 h1         0 C4T       0.067200
     16 H10         -1.4160    36.1760    20.2420 h1         0 C4T       0.051033
     17 H09          0.3640    36.1990    20.2010 h1         0 C4T       0.051033
     18 H12         -0.8410    36.4590    24.0560 h1         0 C4T       0.067200
     19 H15          1.3660    33.6460    23.4060 ha         0 C4T       0.152000
     20 H14          4.4160    35.9480    22.8740 ha         0 C4T       0.150500
     21 C           -0.8020    33.8450    23.5170 ca         0 C4T      -0.249600
     22 C1          -1.9690    33.5610    24.2640 ca         0 C4T       0.213100
     23 C2          -1.9010    32.8990    25.4630 ca         0 C4T      -0.196000
     24 O           -3.1810    33.8770    23.7680 oh         0 C4T      -0.504100
     25 C3           0.5400    32.8810    25.2620 ca         0 C4T      -0.252900
     26 C4          -0.6500    32.5790    25.9860 ca         0 C4T       0.000800
     27 C5           1.6400    32.4000    26.0820 cc         0 C4T       0.377900
     28 C6           3.1220    32.5580    25.7970 c3         0 C4T      -0.047400
     29 C7           3.7090    31.6340    24.7590 ca         0 C4T      -0.080300
     30 C8           4.2500    32.1790    23.5920 ca         0 C4T      -0.122000
     31 C9           4.8820    31.3490    22.6590 ca         0 C4T      -0.129000
     32 C10          3.8370    30.2640    25.0130 ca         0 C4T      -0.122000
     33 C11         -0.5170    36.4920    20.7720 c3         0 C4T       0.072300
     34 C12         -0.1690    36.7330    23.2420 c3         0 C4T       0.135300
     35 C13          2.3000    36.3110    22.9500 ca         0 C4T      -0.121000
     36 C14          3.5690    36.2390    23.4950 ca         0 C4T      -0.122500
     37 C15          0.4680    33.4750    23.9990 ca         0 C4T       0.005000
     38 C16         -0.8740    34.5540    22.2180 c          0 C4T       0.684700
     39 N           -0.4780    35.8570    22.0900 n          0 C4T      -0.468800
     40 O1          -1.2220    33.9180    21.2390 o          0 C4T      -0.629100
     41 N1          -0.2710    31.9880    27.1530 na         0 C4T      -0.018100
     42 N2           1.1190    31.9600    27.1850 nd         0 C4T      -0.516100
     43 C17          4.9900    29.9750    22.9120 ca         0 C4T      -0.127000
     44 C18          4.4810    29.4380    24.0930 ca         0 C4T      -0.129000
     45 C19          1.2300    36.6780    23.7690 ca         0 C4T      -0.106300
     46 C20          3.7610    36.5410    24.8470 ca         0 C4T       0.016400
     47 C21          2.6920    36.8830    25.6740 ca         0 C4T      -0.122500
     48 C22          1.4190    36.9690    25.1200 ca         0 C4T      -0.121000
     49 Cl           5.3630    36.4520    25.5010 cl         0 C4T      -0.086400
@<TRIPOS>BOND
     1     1    28 1   
     2     2    35 1   
     3     3    43 1   
     4     4    44 1   
     5     5    41 1   
     6     6    47 1   
     7     7    24 1   
     8     8    23 1   
     9     9    33 1   
    10    10    32 1   
    11    11    31 1   
    12    12    30 1   
    13    13    28 1   
    14    14    48 1   
    15    15    34 1   
    16    16    33 1   
    17    17    33 1   
    18    18    34 1   
    19    19    37 1   
    20    20    36 1   
    21    21    22 ar  
    22    21    37 ar  
    23    21    38 1   
    24    22    23 ar  
    25    22    24 1   
    26    23    26 ar  
    27    25    26 ar  
    28    25    27 1   
    29    25    37 ar  
    30    26    41 1   
    31    27    28 1   
    32    27    42 2   
    33    28    29 1   
    34    29    30 ar  
    35    29    32 ar  
    36    30    31 ar  
    37    31    43 ar  
    38    32    44 ar  
    39    33    39 1   
    40    34    39 1   
    41    34    45 1   
    42    35    36 ar  
    43    35    45 ar  
    44    36    46 ar  
    45    38    39 1   
    46    38    40 2   
    47    41    42 1   
    48    43    44 ar  
    49    45    48 ar  
    50    46    47 ar  
    51    46    49 1   
    52    47    48 ar  
@<TRIPOS>SUBSTRUCTURE
     1 C4T         1 TEMP              0 ****  ****    0 ROOT
