REMARK  Name = /web/media/ligands/2BSM_ligand.pdb
REMARK  5 active torsions:
REMARK  status: ('A' for Active; 'I' for Inactive)
REMARK    1  A    between atoms: O_2  and  C_3
REMARK    2  A    between atoms: C_8  and  C_9
REMARK    3  A    between atoms: C_10  and  C_11
REMARK    4  A    between atoms: N_13  and  C_14
REMARK    5  A    between atoms: C_18  and  C_19
REMARK                            x       y       z     vdW  Elec       q    Type
REMARK                         _______ _______ _______ _____ _____    ______ ____
ROOT
ATOM      1  C   UNL     1      31.657   8.571  26.131  0.00  0.00    +0.043 A 
ATOM      2  C   UNL     1      30.887   9.746  25.892  0.00  0.00    +0.108 A 
ATOM      3  N   UNL     1      30.147   9.948  26.981  0.00  0.00    -0.148 NA
ATOM      4  N   UNL     1      30.419   9.073  27.852  0.00  0.00    -0.143 NA
ATOM      5  C   UNL     1      31.323   8.196  27.409  0.00  0.00    +0.159 A 
ENDROOT
BRANCH   2   6
ATOM      6  C   UNL     1      30.896  10.509  24.724  0.00  0.00    +0.059 A 
ATOM      7  C   UNL     1      29.705  10.836  24.092  0.00  0.00    +0.200 A 
ATOM      8  O   UNL     1      28.547  10.388  24.587  0.00  0.00    -0.286 OA
ATOM      9  C   UNL     1      29.702  11.595  22.923  0.00  0.00    +0.085 A 
ATOM     10  C   UNL     1      30.909  12.092  22.412  0.00  0.00    +0.209 A 
ATOM     11  O   UNL     1      30.918  12.828  21.274  0.00  0.00    -0.286 OA
ATOM     12  C   UNL     1      32.098  11.791  23.059  0.00  0.00    +0.097 A 
ATOM     13 CL   UNL     1      33.584  12.418  22.440  0.00  0.00    -0.079 Cl
ATOM     14  C   UNL     1      32.085  11.007  24.224  0.00  0.00    +0.019 A 
ENDBRANCH   2   6
BRANCH   1  18
ATOM     15  C   UNL     1      34.474   6.682  23.562  0.00  0.00    +0.139 A 
ATOM     16  C   UNL     1      33.140   6.855  23.124  0.00  0.00    +0.037 A 
ATOM     17  C   UNL     1      32.193   7.471  23.989  0.00  0.00    +0.003 A 
ATOM     18  C   UNL     1      32.579   7.936  25.264  0.00  0.00    +0.003 A 
ATOM     19  C   UNL     1      33.895   7.753  25.673  0.00  0.00    +0.003 A 
ATOM     20  C   UNL     1      34.820   7.125  24.832  0.00  0.00    +0.037 A 
BRANCH  15  22
ATOM     21  C   UNL     1      35.030   5.521  21.559  0.00  0.00    +0.252 C 
ATOM     22  O   UNL     1      35.470   6.078  22.799  0.00  0.00    -0.471 OA
ENDBRANCH  15  22
ENDBRANCH   1  18
BRANCH   5  23
ATOM     23  C   UNL     1      31.844   7.008  28.228  0.00  0.00    +0.284 C 
ATOM     24  O   UNL     1      32.384   6.048  27.701  0.00  0.00    -0.267 OA
ATOM     25  N   UNL     1      31.673   7.141  29.548  0.00  0.00    -0.200 NA
BRANCH  25  26
ATOM     26  C   UNL     1      32.046   6.120  30.566  0.00  0.00    +0.116 C 
ATOM     27  C   UNL     1      33.459   5.572  30.357  0.00  0.00    +0.025 C 
ENDBRANCH  25  26
ENDBRANCH   5  23
TORSDOF 5
