@<TRIPOS>MOLECULE
9EK
   60    64     1     0     0
SMALL
bcc


@<TRIPOS>ATOM
      1 C1          -0.1620    33.7110    21.7930 c        301 9EK       0.679700
      2 N2           0.4690    34.9060    21.6520 n        301 9EK      -0.379000
      3 O3          -0.7980    33.2150    20.8950 o        301 9EK      -0.623100
      4 C4          -0.0990    33.0200    23.1240 ca       301 9EK      -0.190600
      5 C5           1.1230    32.7360    23.7300 ca       301 9EK      -0.011000
      6 C6          -1.2780    32.0580    25.0210 ca       301 9EK      -0.139000
      7 C7          -1.2960    32.6640    23.7750 ca       301 9EK       0.158100
      8 O8          -2.4840    32.9000    23.1810 oh       301 9EK      -0.511100
      9 C9          -0.0500    31.8070    25.6150 ca       301 9EK      -0.050000
     10 C10          1.1580    32.1350    24.9810 ca       301 9EK      -0.122000
     11 C11          2.2130    31.7700    25.9080 cc       301 9EK      -0.164300
     12 N12          1.6230    31.2520    26.9930 na       301 9EK       0.095800
     13 N13          0.2840    31.2840    26.8160 nc       301 9EK      -0.259400
     14 C14          3.6720    32.0490    25.6960 c        301 9EK       0.684300
     15 N15          4.4010    31.2150    24.9440 n        301 9EK      -0.432800
     16 C16          5.8190    31.4030    24.6350 c3       301 9EK       0.070000
     17 C17          6.2420    30.0610    24.1000 c3       301 9EK      -0.094900
     18 C18          5.0470    29.4690    23.5320 c3       301 9EK      -0.094900
     19 C19          3.8890    29.9850    24.3450 c3       301 9EK       0.070000
     20 O20          4.1380    33.0200    26.2430 o        301 9EK      -0.596100
     21 C21          1.2170    35.5700    22.6790 ca       301 9EK      -0.001400
     22 C22          2.5660    35.7920    22.5200 ca       301 9EK      -0.108000
     23 C23          2.6440    37.0150    24.5930 ca       301 9EK       0.144600
     24 C24          1.2830    36.7850    24.7470 ca       301 9EK      -0.160500
     25 C25          3.2710    36.5100    23.4630 ca       301 9EK      -0.160500
     26 C26          0.5790    36.0670    23.7990 ca       301 9EK      -0.108000
     27 C27          0.3960    35.5850    20.3680 c3       301 9EK       0.081300
     28 N28          3.3800    37.6940    25.5620 nh       301 9EK      -0.633000
     29 C29          4.4650    38.5450    25.0630 c3       301 9EK       0.150800
     30 C30          5.3690    38.9710    26.2050 c3       301 9EK       0.123400
     31 O31          4.6300    39.5630    27.2540 os       301 9EK      -0.412600
     32 C32          3.7110    38.6490    27.7900 c3       301 9EK       0.123400
     33 C33          2.7030    38.2080    26.7590 c3       301 9EK       0.150800
     34 H01          2.0540    32.9860    23.2210 ha       301 9EK       0.156000
     35 H02         -2.2070    31.7850    25.5220 ha       301 9EK       0.168000
     36 H03         -2.8160    32.0870    22.7930 ho       301 9EK       0.450000
     37 H04          2.1000    30.8960    27.8090 hn       301 9EK       0.340700
     38 H05          6.4040    31.7190    25.4990 h1       301 9EK       0.060950
     39 H06          5.9550    32.1830    23.8860 h1       301 9EK       0.060950
     40 H07          6.6680    29.4330    24.8820 hc       301 9EK       0.055200
     41 H08          7.0080    30.1810    23.3340 hc       301 9EK       0.055200
     42 H09          5.0940    28.3800    23.5590 hc       301 9EK       0.055200
     43 H10          4.9380    29.7650    22.4890 hc       301 9EK       0.055200
     44 H11          2.9950    30.1510    23.7440 h1       301 9EK       0.060950
     45 H12          3.6040    29.2670    25.1140 h1       301 9EK       0.060950
     46 H13          3.0800    35.3980    21.6430 ha       301 9EK       0.141500
     47 H14          0.7650    37.1740    25.6240 ha       301 9EK       0.140000
     48 H15          4.3370    36.6830    23.3180 ha       301 9EK       0.140000
     49 H16         -0.4880    35.8910    23.9360 ha       301 9EK       0.141500
     50 H17          0.0610    36.6110    20.5190 h1       301 9EK       0.050033
     51 H18          1.3810    35.5900    19.9020 h1       301 9EK       0.050033
     52 H19         -0.3100    35.0650    19.7210 h1       301 9EK       0.050033
     53 H20          4.0340    39.4340    24.6020 h1       301 9EK       0.048450
     54 H21          5.0490    37.9900    24.3290 h1       301 9EK       0.048450
     55 H22          6.0770    39.7080    25.8260 h1       301 9EK       0.057950
     56 H23          5.8930    38.0960    26.5890 h1       301 9EK       0.057950
     57 H24          3.1760    39.1400    28.6020 h1       301 9EK       0.057950
     58 H25          4.2510    37.7750    28.1540 h1       301 9EK       0.057950
     59 H26          2.0920    39.0650    26.4760 h1       301 9EK       0.048450
     60 H27          2.0770    37.4230    27.1820 h1       301 9EK       0.048450
@<TRIPOS>BOND
     1     1     2 1   
     2     1     3 2   
     3     1     4 1   
     4     2    21 1   
     5     2    27 1   
     6     4     5 ar  
     7     4     7 ar  
     8     5    10 ar  
     9     5    34 1   
    10     6     7 ar  
    11     6     9 ar  
    12     6    35 1   
    13     7     8 1   
    14     8    36 1   
    15     9    10 ar  
    16     9    13 2   
    17    10    11 2   
    18    11    12 1   
    19    11    14 1   
    20    12    13 1   
    21    12    37 1   
    22    14    15 1   
    23    14    20 2   
    24    15    16 1   
    25    15    19 1   
    26    16    17 1   
    27    16    38 1   
    28    16    39 1   
    29    17    18 1   
    30    17    40 1   
    31    17    41 1   
    32    18    19 1   
    33    18    42 1   
    34    18    43 1   
    35    19    44 1   
    36    19    45 1   
    37    21    22 ar  
    38    21    26 ar  
    39    22    25 ar  
    40    22    46 1   
    41    23    24 ar  
    42    23    25 ar  
    43    23    28 1   
    44    24    26 ar  
    45    24    47 1   
    46    25    48 1   
    47    26    49 1   
    48    27    50 1   
    49    27    51 1   
    50    27    52 1   
    51    28    29 1   
    52    28    33 1   
    53    29    30 1   
    54    29    53 1   
    55    29    54 1   
    56    30    31 1   
    57    30    55 1   
    58    30    56 1   
    59    31    32 1   
    60    32    33 1   
    61    32    57 1   
    62    32    58 1   
    63    33    59 1   
    64    33    60 1   
@<TRIPOS>SUBSTRUCTURE
     1 9EK         1 TEMP              0 ****  ****    0 ROOT
