@<TRIPOS>MOLECULE
9EK
   60    64     1     0     0
SMALL
bcc


@<TRIPOS>ATOM
      1 H25         -0.4880    35.8910    23.9360 ha         0 9EK       0.141500
      2 H10          5.8690    38.0850    26.5960 h1         0 9EK       0.057950
      3 H24          4.3370    36.6830    23.3180 ha         0 9EK       0.140000
      4 H03          2.9950    30.1510    23.7440 h1         0 9EK       0.060950
      5 H02          5.9550    32.1830    23.8860 h1         0 9EK       0.060950
      6 H01          6.4040    31.7190    25.4990 h1         0 9EK       0.060950
      7 H13          3.1860    39.1200    28.6210 h1         0 9EK       0.057950
      8 H14          2.0920    39.0650    26.4760 h1         0 9EK       0.048450
      9 H11          6.0970    39.6920    25.8320 h1         0 9EK       0.057950
     10 H06          0.7650    37.1740    25.6240 ha         0 9EK       0.140000
     11 H09         -0.3100    35.0650    19.7210 h1         0 9EK       0.050033
     12 H08          1.3810    35.5900    19.9020 h1         0 9EK       0.050033
     13 H19          2.1000    30.8960    27.8090 hn         0 9EK       0.340700
     14 H07          0.0610    36.6110    20.5190 h1         0 9EK       0.050033
     15 H05          3.0800    35.3980    21.6430 ha         0 9EK       0.141500
     16 H04          3.6040    29.2670    25.1140 h1         0 9EK       0.060950
     17 H12          4.2610    37.7700    28.1270 h1         0 9EK       0.057950
     18 H15          2.0770    37.4230    27.1820 h1         0 9EK       0.048450
     19 H18         -2.8160    32.0870    22.7930 ho         0 9EK       0.450000
     20 H17         -2.2070    31.7850    25.5220 ha         0 9EK       0.168000
     21 H16          2.0540    32.9860    23.2210 ha         0 9EK       0.156000
     22 H27          4.0400    39.4310    24.5910 h1         0 9EK       0.048450
     23 H22          4.9380    29.7310    22.4800 hc         0 9EK       0.055200
     24 H21          7.0080    30.1810    23.3340 hc         0 9EK       0.055200
     25 H20          6.6680    29.4330    24.8820 hc         0 9EK       0.055200
     26 H23          5.0980    28.3820    23.5940 hc         0 9EK       0.055200
     27 H26          5.0520    37.9810    24.3380 h1         0 9EK       0.048450
     28 C           -0.1620    33.7110    21.7930 c          0 9EK       0.679700
     29 C1          -1.2960    32.6640    23.7750 ca         0 9EK       0.158100
     30 C2          -0.0500    31.8070    25.6150 ca         0 9EK      -0.050000
     31 C3           1.1580    32.1350    24.9810 ca         0 9EK      -0.122000
     32 C4           2.2130    31.7700    25.9080 cc         0 9EK      -0.164300
     33 C5           3.6720    32.0490    25.6960 c          0 9EK       0.684300
     34 C6           5.8190    31.4030    24.6350 c3         0 9EK       0.070000
     35 C7           3.8890    29.9850    24.3450 c3         0 9EK       0.070000
     36 C8           1.2170    35.5700    22.6790 ca         0 9EK      -0.001400
     37 C9           2.5660    35.7920    22.5200 ca         0 9EK      -0.108000
     38 C10          1.2830    36.7850    24.7470 ca         0 9EK      -0.160500
     39 C11          0.3960    35.5850    20.3680 c3         0 9EK       0.081300
     40 C12          5.3690    38.9710    26.2050 c3         0 9EK       0.123400
     41 C13          3.7110    38.6490    27.7900 c3         0 9EK       0.123400
     42 C14          2.7030    38.2080    26.7590 c3         0 9EK       0.150800
     43 N            0.4690    34.9060    21.6520 n          0 9EK      -0.379000
     44 O           -0.7980    33.2150    20.8950 o          0 9EK      -0.623100
     45 C15         -0.0990    33.0200    23.1240 ca         0 9EK      -0.190600
     46 C16          1.1230    32.7360    23.7300 ca         0 9EK      -0.011000
     47 C17         -1.2780    32.0580    25.0210 ca         0 9EK      -0.139000
     48 O1          -2.4840    32.9000    23.1810 oh         0 9EK      -0.511100
     49 N1           1.6230    31.2520    26.9930 na         0 9EK       0.095800
     50 N2           0.2840    31.2840    26.8160 nc         0 9EK      -0.259400
     51 N3           4.4010    31.2150    24.9440 n          0 9EK      -0.432800
     52 C18          6.2420    30.0610    24.1000 c3         0 9EK      -0.095400
     53 C19          5.0470    29.4690    23.5320 c3         0 9EK      -0.095400
     54 O2           4.1380    33.0200    26.2430 o          0 9EK      -0.596100
     55 C20          2.6440    37.0150    24.5930 ca         0 9EK       0.144600
     56 C21          3.2710    36.5100    23.4630 ca         0 9EK      -0.160500
     57 C22          0.5790    36.0670    23.7990 ca         0 9EK      -0.108000
     58 N4           3.3800    37.6940    25.5620 nh         0 9EK      -0.633000
     59 C23          4.4650    38.5450    25.0630 c3         0 9EK       0.150800
     60 O3           4.6300    39.5630    27.2540 os         0 9EK      -0.412600
@<TRIPOS>BOND
     1     1    57 1   
     2     2    40 1   
     3     3    56 1   
     4     4    35 1   
     5     5    34 1   
     6     6    34 1   
     7     7    41 1   
     8     8    42 1   
     9     9    40 1   
    10    10    38 1   
    11    11    39 1   
    12    12    39 1   
    13    13    49 1   
    14    14    39 1   
    15    15    37 1   
    16    16    35 1   
    17    17    41 1   
    18    18    42 1   
    19    19    48 1   
    20    20    47 1   
    21    21    46 1   
    22    22    59 1   
    23    23    53 1   
    24    24    52 1   
    25    25    52 1   
    26    26    53 1   
    27    27    59 1   
    28    28    43 1   
    29    28    44 2   
    30    28    45 1   
    31    29    45 ar  
    32    29    47 ar  
    33    29    48 1   
    34    30    31 ar  
    35    30    47 ar  
    36    30    50 2   
    37    31    32 2   
    38    31    46 ar  
    39    32    33 1   
    40    32    49 1   
    41    33    51 1   
    42    33    54 2   
    43    34    51 1   
    44    34    52 1   
    45    35    51 1   
    46    35    53 1   
    47    36    37 ar  
    48    36    43 1   
    49    36    57 ar  
    50    37    56 ar  
    51    38    55 ar  
    52    38    57 ar  
    53    39    43 1   
    54    40    59 1   
    55    40    60 1   
    56    41    42 1   
    57    41    60 1   
    58    42    58 1   
    59    45    46 ar  
    60    49    50 1   
    61    52    53 1   
    62    55    56 ar  
    63    55    58 1   
    64    58    59 1   
@<TRIPOS>SUBSTRUCTURE
     1 9EK         1 TEMP              0 ****  ****    0 ROOT
