@<TRIPOS>MOLECULE
70O
   69    72     1     0     0
SMALL
bcc


@<TRIPOS>ATOM
      1 C1           1.4890     8.3780    26.6840 ca       301 70O      -0.137500
      2 C2           0.1340     8.7010    26.4590 ca       301 70O       0.037600
      3 C3          -0.4820     8.2820    25.2730 ca       301 70O      -0.137500
      4 C4           0.2300     7.5690    24.3260 ca       301 70O      -0.116000
      5 C5           1.5640     7.2530    24.5400 ca       301 70O      -0.077300
      6 C6           2.1930     7.6470    25.7320 ca       301 70O      -0.116000
      7 C7           2.2320     6.4010    23.4750 c3       301 70O      -0.021400
      8 N8          -0.6310     9.4090    27.4180 n        301 70O      -0.386000
      9 C9          -0.8320     8.7460    28.7150 c3       301 70O       0.081300
     10 C10         -1.2080    10.6330    27.1890 c        301 70O       0.683700
     11 O11         -1.8630    11.1510    28.0730 o        301 70O      -0.619100
     12 C12         -1.0620    11.3410    25.8850 ca       301 70O      -0.208600
     13 C13          0.2120    11.6930    25.4110 ca       301 70O       0.007000
     14 C14         -2.0820    12.1730    23.8220 ca       301 70O      -0.147000
     15 C15         -2.2020    11.5970    25.0750 ca       301 70O       0.163100
     16 O16         -3.4450    11.3380    25.5400 oh       301 70O      -0.514100
     17 C17         -0.8160    12.4980    23.3250 ca       301 70O      -0.033000
     18 C18          0.3340    12.2520    24.1280 ca       301 70O      -0.172000
     19 C19          1.4780    12.7010    23.3410 cc       301 70O      -0.079300
     20 N20          1.0030    13.1440    22.2060 na       301 70O       0.057800
     21 N21         -0.3890    13.0420    22.1370 nc       301 70O      -0.285400
     22 C22          2.9260    12.6630    23.7760 c3       301 70O      -0.024200
     23 C23          3.2810    13.9320    24.6000 c3       301 70O      -0.073400
     24 C24          4.7330    14.0110    25.1720 c3       301 70O      -0.055000
     25 C25          3.6850     6.7500    23.1160 c3       301 70O      -0.072400
     26 C26          4.0790     5.9200    21.8810 c3       301 70O       0.168800
     27 N27          3.7910     4.4620    22.0000 n3       301 70O      -0.733600
     28 C28          2.5100     4.0600    22.6300 c3       301 70O       0.168800
     29 C29          2.1690     4.9110    23.8610 c3       301 70O      -0.072400
     30 C30          3.8660     3.8420    20.6660 c3       301 70O       0.158100
     31 C31          5.8230    13.7670    24.1080 c3       301 70O      -0.088767
     32 C32          5.0240    15.4130    25.7290 c3       301 70O      -0.088767
     33 C33          4.9090    13.0020    26.3260 c3       301 70O      -0.088767
     34 H01          1.9830     8.7000    27.6010 ha       301 70O       0.143500
     35 H02         -1.5310     8.5200    25.0950 ha       301 70O       0.143500
     36 H03         -0.2600     7.2530    23.4050 ha       301 70O       0.138000
     37 H04          3.2340     7.3800    25.9120 ha       301 70O       0.138000
     38 H05          1.6520     6.6240    22.5790 hc       301 70O       0.053700
     39 H06         -1.8770     8.4520    28.8140 h1       301 70O       0.050033
     40 H07         -0.1990     7.8600    28.7730 h1       301 70O       0.050033
     41 H08         -0.5700     9.4330    29.5190 h1       301 70O       0.050033
     42 H09          1.0950    11.5350    26.0300 ha       301 70O       0.144000
     43 H10         -2.9720    12.3730    23.2250 ha       301 70O       0.165000
     44 H11         -3.6990    12.0160    26.1700 ho       301 70O       0.449000
     45 H12          1.5770    13.5170    21.4640 hn       301 70O       0.322700
     46 H13          3.5590    12.6310    22.8890 hc       301 70O       0.067200
     47 H14          3.0940    11.7780    24.3890 hc       301 70O       0.067200
     48 H15          2.6300    13.8990    25.4730 hc       301 70O       0.043700
     49 H16          3.1310    14.7980    23.9560 hc       301 70O       0.043700
     50 H17          4.3470     6.5250    23.9520 hc       301 70O       0.050450
     51 H18          3.7660     7.8130    22.8900 hc       301 70O       0.050450
     52 H19          5.1600     6.0150    21.7750 h1       301 70O       0.030700
     53 H20          3.5320     6.3070    21.0210 h1       301 70O       0.030700
     54 H21          2.6130     3.0260    22.9600 h1       301 70O       0.030700
     55 H22          1.7100     4.1670    21.8970 h1       301 70O       0.030700
     56 H23          1.1670     4.6640    24.2120 hc       301 70O       0.050450
     57 H24          2.8860     4.7080    24.6560 hc       301 70O       0.050450
     58 H25          4.8920     3.8910    20.3000 h1       301 70O       0.032033
     59 H26          3.5540     2.8000    20.7310 h1       301 70O       0.032033
     60 H27          3.2100     4.3760    19.9790 h1       301 70O       0.032033
     61 H28          6.7410    13.4420    24.5970 hc       301 70O       0.036589
     62 H29          5.4890    12.9950    23.4150 hc       301 70O       0.036589
     63 H30          6.0110    14.6910    23.5610 hc       301 70O       0.036589
     64 H31          5.9100    15.8200    25.2420 hc       301 70O       0.036589
     65 H32          4.1720    16.0650    25.5360 hc       301 70O       0.036589
     66 H33          5.1970    15.3490    26.8030 hc       301 70O       0.036589
     67 H34          5.6370    13.3900    27.0390 hc       301 70O       0.036589
     68 H35          3.9530    12.8530    26.8280 hc       301 70O       0.036589
     69 H36          5.2630    12.0510    25.9270 hc       301 70O       0.036589
@<TRIPOS>BOND
     1     1     2 ar  
     2     1     6 ar  
     3     1    34 1   
     4     2     3 ar  
     5     2     8 1   
     6     3     4 ar  
     7     3    35 1   
     8     4     5 ar  
     9     4    36 1   
    10     5     6 ar  
    11     5     7 1   
    12     6    37 1   
    13     7    25 1   
    14     7    29 1   
    15     7    38 1   
    16     8     9 1   
    17     8    10 1   
    18     9    39 1   
    19     9    40 1   
    20     9    41 1   
    21    10    11 2   
    22    10    12 1   
    23    12    13 ar  
    24    12    15 ar  
    25    13    18 ar  
    26    13    42 1   
    27    14    15 ar  
    28    14    17 ar  
    29    14    43 1   
    30    15    16 1   
    31    16    44 1   
    32    17    18 ar  
    33    17    21 2   
    34    18    19 2   
    35    19    20 1   
    36    19    22 1   
    37    20    21 1   
    38    20    45 1   
    39    22    23 1   
    40    22    46 1   
    41    22    47 1   
    42    23    24 1   
    43    23    48 1   
    44    23    49 1   
    45    24    31 1   
    46    24    32 1   
    47    24    33 1   
    48    25    26 1   
    49    25    50 1   
    50    25    51 1   
    51    26    27 1   
    52    26    52 1   
    53    26    53 1   
    54    27    28 1   
    55    27    30 1   
    56    28    29 1   
    57    28    54 1   
    58    28    55 1   
    59    29    56 1   
    60    29    57 1   
    61    30    58 1   
    62    30    59 1   
    63    30    60 1   
    64    31    61 1   
    65    31    62 1   
    66    31    63 1   
    67    32    64 1   
    68    32    65 1   
    69    32    66 1   
    70    33    67 1   
    71    33    68 1   
    72    33    69 1   
@<TRIPOS>SUBSTRUCTURE
     1 70O         1 TEMP              0 ****  ****    0 ROOT
