@<TRIPOS>MOLECULE
74E
   61    64     1     0     0
SMALL
bcc


@<TRIPOS>ATOM
      1 C1          25.8080    24.3890    12.9730 c       4000 74E       0.613700
      2 C2          28.5970    24.9130    13.7510 c3      4000 74E      -0.017100
      3 C3          27.4650    25.6160    14.5120 c3      4000 74E      -0.039000
      4 C4          26.1930    24.7670    14.3830 c3      4000 74E      -0.174400
      5 C5          28.1920    24.3750    12.4120 cc      4000 74E      -0.038600
      6 C6          26.8870    24.1440    12.0060 cd      4000 74E      -0.241600
      7 C7          26.9370    23.7000    10.6390 cd      4000 74E      -0.065300
      8 C8          28.2590    23.6730    10.2840 cc      4000 74E      -0.176300
      9 N9          29.0440    24.0870    11.3440 na      4000 74E       0.009800
     10 C10         27.8490    25.7520    15.9850 c3      4000 74E      -0.092100
     11 C11         27.2260    27.0130    13.9310 c3      4000 74E      -0.092100
     12 O12         24.6280    24.3690    12.6510 o       4000 74E      -0.551100
     13 C13         30.4740    24.2660    11.2740 ca      4000 74E       0.070800
     14 C14         31.2970    23.8320    12.3130 ca      4000 74E      -0.206000
     15 C15         32.6550    24.1020    12.2780 ca      4000 74E      -0.049000
     16 C16         33.2240    24.7920    11.2010 ca      4000 74E      -0.226600
     17 C17         32.3950    25.2150    10.1360 ca      4000 74E       0.243600
     18 C18         31.0250    24.9400    10.1830 ca      4000 74E      -0.228000
     19 C19         34.6930    25.1080    11.2280 c       4000 74E       0.683700
     20 N20         35.5060    24.2470    11.8300 n       4000 74E      -0.668000
     21 N21         32.9370    25.9090     9.0580 nh      4000 74E      -0.737600
     22 C22         32.1910    26.4610     7.9320 c3      4000 74E       0.204500
     23 C23         31.6330    27.8350     8.2940 c3      4000 74E      -0.094400
     24 C24         30.9070    28.4960     7.1150 c3      4000 74E      -0.109400
     25 C25         31.7890    28.5660     5.8810 c3      4000 74E       0.136100
     26 C26         32.3400    27.1990     5.5150 c3      4000 74E      -0.109400
     27 C27         33.0770    26.5520     6.6960 c3      4000 74E      -0.094400
     28 O28         31.0410    29.0950     4.7830 oh      4000 74E      -0.591800
     29 C29         25.7810    23.3420     9.7370 c3      4000 74E      -0.039800
     30 O30         35.1150    26.1460    10.6860 o       4000 74E      -0.633100
     31 H01         28.8980    24.0570    14.3550 hc      4000 74E       0.061200
     32 H02         29.4060    25.6280    13.6030 hc      4000 74E       0.061200
     33 H03         26.4040    23.8300    14.8980 hc      4000 74E       0.071200
     34 H04         25.3670    25.3290    14.8190 hc      4000 74E       0.071200
     35 H05         28.6370    23.3690     9.3080 h4      4000 74E       0.173000
     36 H06         28.6840    26.4460    16.0800 hc      4000 74E       0.040533
     37 H07         26.9970    26.1310    16.5500 hc      4000 74E       0.040533
     38 H08         28.1410    24.7770    16.3760 hc      4000 74E       0.040533
     39 H09         26.3630    27.4660    14.4190 hc      4000 74E       0.040533
     40 H10         28.1060    27.6330    14.1010 hc      4000 74E       0.040533
     41 H11         27.0380    26.9340    12.8600 hc      4000 74E       0.040533
     42 H12         30.8720    23.2810    13.1520 ha      4000 74E       0.148000
     43 H13         33.2900    23.7730    13.1010 ha      4000 74E       0.139000
     44 H14         30.3820    25.2550     9.3610 ha      4000 74E       0.152000
     45 H15         36.4990    24.4280    11.8620 hn      4000 74E       0.314500
     46 H16         35.1310    23.4120    12.2560 hn      4000 74E       0.314500
     47 H17         33.9380    26.0430     9.0550 hn      4000 74E       0.439800
     48 H18         31.3580    25.7950     7.7060 h1      4000 74E       0.057700
     49 H19         32.4720    28.4740     8.5700 hc      4000 74E       0.055450
     50 H20         30.9310    27.7230     9.1210 hc      4000 74E       0.055450
     51 H21         30.6460    29.5140     7.4040 hc      4000 74E       0.050950
     52 H22         30.0140    27.9170     6.8800 hc      4000 74E       0.050950
     53 H23         32.6310    29.2210     6.1040 h1      4000 74E       0.079700
     54 H24         33.0510    27.3260     4.6980 hc      4000 74E       0.050950
     55 H25         31.5150    26.5530     5.2150 hc      4000 74E       0.050950
     56 H26         33.3600    25.5400     6.4060 hc      4000 74E       0.055450
     57 H27         33.9570    27.1500     6.9340 hc      4000 74E       0.055450
     58 H28         30.7940    28.3810     4.1900 ho      4000 74E       0.396000
     59 H29         24.9630    24.0440     9.9000 hc      4000 74E       0.052700
     60 H30         26.1020    23.3930     8.6970 hc      4000 74E       0.052700
     61 H31         25.4420    22.3310     9.9640 hc      4000 74E       0.052700
@<TRIPOS>BOND
     1     1     4 1   
     2     1     6 1   
     3     1    12 2   
     4     2     3 1   
     5     2     5 1   
     6     2    31 1   
     7     2    32 1   
     8     3     4 1   
     9     3    10 1   
    10     3    11 1   
    11     4    33 1   
    12     4    34 1   
    13     5     6 2   
    14     5     9 1   
    15     6     7 1   
    16     7     8 2   
    17     7    29 1   
    18     8     9 1   
    19     8    35 1   
    20     9    13 1   
    21    10    36 1   
    22    10    37 1   
    23    10    38 1   
    24    11    39 1   
    25    11    40 1   
    26    11    41 1   
    27    13    14 ar  
    28    13    18 ar  
    29    14    15 ar  
    30    14    42 1   
    31    15    16 ar  
    32    15    43 1   
    33    16    17 ar  
    34    16    19 1   
    35    17    18 ar  
    36    17    21 1   
    37    18    44 1   
    38    19    20 1   
    39    19    30 2   
    40    20    45 1   
    41    20    46 1   
    42    21    22 1   
    43    21    47 1   
    44    22    23 1   
    45    22    27 1   
    46    22    48 1   
    47    23    24 1   
    48    23    49 1   
    49    23    50 1   
    50    24    25 1   
    51    24    51 1   
    52    24    52 1   
    53    25    26 1   
    54    25    28 1   
    55    25    53 1   
    56    26    27 1   
    57    26    54 1   
    58    26    55 1   
    59    27    56 1   
    60    27    57 1   
    61    28    58 1   
    62    29    59 1   
    63    29    60 1   
    64    29    61 1   
@<TRIPOS>SUBSTRUCTURE
     1 74E         1 TEMP              0 ****  ****    0 ROOT
