REMARK  Name = /web/media/ligands/4OYR_ligand.pdb
REMARK  4 active torsions:
REMARK  status: ('A' for Active; 'I' for Inactive)
REMARK    1  A    between atoms: C_2  and  O_15
REMARK    2  A    between atoms: C_7  and  O_15
REMARK    3  A    between atoms: C_10  and  C_11
REMARK    4  A    between atoms: C_11  and  C_12
REMARK                            x       y       z     vdW  Elec       q    Type
REMARK                         _______ _______ _______ _____ _____    ______ ____
ROOT
ATOM      1  C   UNL     1      -3.567 -13.945  31.751  0.00  0.00    -0.014 A 
ATOM      2  C   UNL     1      -3.141 -15.173  32.269  0.00  0.00    -0.001 A 
ATOM      3  C   UNL     1      -3.211 -16.325  31.479  0.00  0.00    +0.041 A 
ATOM      4  C   UNL     1      -3.693 -16.243  30.164  0.00  0.00    +0.184 A 
ATOM      5  C   UNL     1      -4.117 -15.004  29.651  0.00  0.00    +0.230 A 
ATOM      6  O   UNL     1      -4.590 -14.888  28.337  0.00  0.00    -0.283 OA
ATOM      7  C   UNL     1      -4.054 -13.863  30.450  0.00  0.00    +0.041 A 
ENDROOT
BRANCH   1   8
ATOM      8  C   UNL     1      -3.458 -12.664  32.578  0.00  0.00    +0.052 C 
BRANCH   8  11
ATOM      9  C   UNL     1       0.056 -10.741  32.347  0.00  0.00    +0.030 C 
ATOM     10  C   UNL     1      -0.954 -11.782  32.837  0.00  0.00    -0.030 C 
ATOM     11  C   UNL     1      -2.323 -11.740  32.170  0.00  0.00    -0.026 C 
ENDBRANCH   8  11
ENDBRANCH   1   8
BRANCH   4  12
ATOM     12  O   UNL     1      -3.813 -17.409  29.403  0.00  0.00    -0.449 OA
BRANCH  12  13
ATOM     13  C   UNL     1      -2.698 -17.661  28.590  0.00  0.00    +0.156 A 
ATOM     14  C   UNL     1      -2.713 -18.810  27.808  0.00  0.00    +0.092 A 
ATOM     15 CL   UNL     1      -4.167 -19.836  27.839  0.00  0.00    -0.079 Cl
ATOM     16  C   UNL     1      -1.636 -19.123  26.990  0.00  0.00    +0.014 A 
ATOM     17  C   UNL     1      -0.531 -18.270  26.936  0.00  0.00    +0.001 A 
ATOM     18  C   UNL     1      -0.511 -17.114  27.719  0.00  0.00    +0.003 A 
ATOM     19  C   UNL     1      -1.594 -16.811  28.544  0.00  0.00    +0.038 A 
ENDBRANCH  12  13
ENDBRANCH   4  12
TORSDOF 4
