/web/media/ligands/4OYR_ligand.pdb
 OpenBabel04242009293D

 19 20  0  0  0  0  0  0  0  0999 V2000
    0.0560  -10.7410   32.3470 C   0  0  0  0  0  0  0  0  0  0  0  0
   -2.6980  -17.6610   28.5900 C   0  0  0  0  0  0  0  0  0  0  0  0
   -1.6360  -19.1230   26.9900 C   0  0  0  0  0  0  0  0  0  0  0  0
   -1.5940  -16.8110   28.5440 C   0  0  0  0  0  0  0  0  0  0  0  0
   -3.1410  -15.1730   32.2690 C   0  0  0  0  0  0  0  0  0  0  0  0
   -3.2110  -16.3250   31.4790 C   0  0  0  0  0  0  0  0  0  0  0  0
   -3.6930  -16.2430   30.1640 C   0  0  0  0  0  0  0  0  0  0  0  0
   -4.1170  -15.0040   29.6510 C   0  0  0  0  0  0  0  0  0  0  0  0
   -4.0540  -13.8630   30.4500 C   0  0  0  0  0  0  0  0  0  0  0  0
   -3.5670  -13.9450   31.7510 C   0  0  0  0  0  0  0  0  0  0  0  0
   -3.4580  -12.6640   32.5780 C   0  0  0  0  0  0  0  0  0  0  0  0
   -2.3230  -11.7400   32.1700 C   0  0  0  0  0  0  0  0  0  0  0  0
   -0.9540  -11.7820   32.8370 C   0  0  0  0  0  0  0  0  0  0  0  0
   -4.5900  -14.8880   28.3370 O   0  0  0  0  0  0  0  0  0  0  0  0
   -3.8130  -17.4090   29.4030 O   0  0  0  0  0  0  0  0  0  0  0  0
   -2.7130  -18.8100   27.8080 C   0  0  0  0  0  0  0  0  0  0  0  0
   -0.5310  -18.2700   26.9360 C   0  0  0  0  0  0  0  0  0  0  0  0
   -0.5110  -17.1140   27.7190 C   0  0  0  0  0  0  0  0  0  0  0  0
   -4.1670  -19.8360   27.8390 Cl  0  0  0  0  0  0  0  0  0  0  0  0
  1 13  1  0  0  0  0
  2 15  1  0  0  0  0
  3 16  1  0  0  0  0
  4  2  1  0  0  0  0
  6  5  2  0  0  0  0
  7  6  1  0  0  0  0
  8  7  2  0  0  0  0
  8  9  1  0  0  0  0
  9 10  2  0  0  0  0
 10  5  1  0  0  0  0
 10 11  1  0  0  0  0
 12 11  1  0  0  0  0
 12 13  2  0  0  0  0
 14  8  1  0  0  0  0
 15  7  1  0  0  0  0
 16 19  1  0  0  0  0
 16  2  2  0  0  0  0
 17  3  2  0  0  0  0
 17 18  1  0  0  0  0
 18  4  2  0  0  0  0
M  END
>  <REMARK>
 610     1US A  302                                                       
 610     1US B  302                                                       
 610     1US C  302                                                       
 610     1US D  302                                                       
 800 SITE_DESCRIPTION: binding site for residue 1US A 302                 
 800 SITE_DESCRIPTION: binding site for residue 1US B 302                 
 800 SITE_DESCRIPTION: binding site for residue 1US C 302                 
 800 SITE_DESCRIPTION: binding site for residue 1US D 302                 

>  <HET>
 1US  A 302      19                                                       
 1US  B 302      20                                                       
 1US  C 302      19                                                       
 1US  D 302      20                                                       

>  <HETNAM>
     1US 2-(2-CHLORANYLPHENOXY)-5-HEXYL-PHENOL                            

>  <FORMUL>
   6  1US    4(C18 H21 CL O2)                                             

>  <SITE>
   7 AC1 32 1US A 302  HOH A 406  HOH A 407  HOH A 410                    
   7 AC3 31 1US B 302  HOH B 402  HOH B 405  HOH B 406                    
   7 AC5 28 1US C 302  HOH C 405  HOH C 418  HOH C 424                    
   7 AC7 26 1US D 302  HOH D 406                                          

>  <ANISOU>
 7628  C10 1US A 302     5678   5159   5277    108   -637   -131       C  
 7628  C10 1US A 302     5678   5159   5277    108   -637   -131       C  
 7629  C15 1US A 302     3945   3537   3591     41   -571   -193       C  
 7629  C15 1US A 302     3945   3537   3591     41   -571   -193       C  
 7630  C17 1US A 302     3445   3001   3101     50   -572   -187       C  
 7630  C17 1US A 302     3445   3001   3101     50   -572   -187       C  
 7631  C20 1US A 302     4185   3758   3839     65   -585   -171       C  
 7631  C20 1US A 302     4185   3758   3839     65   -585   -171       C  
 7632  C01 1US A 302     4259   3807   3823     27   -567   -186       C  
 7632  C01 1US A 302     4259   3807   3823     27   -567   -186       C  
 7633  C02 1US A 302     5055   4613   4638     17   -562   -189       C  
 7633  C02 1US A 302     5055   4613   4638     17   -562   -189       C  
 7634  C03 1US A 302     4567   4186   4199     35   -562   -205       C  
 7634  C03 1US A 302     4567   4186   4199     35   -562   -205       C  
 7635  C04 1US A 302     5070   4736   4729     65   -570   -217       C  
 7635  C04 1US A 302     5070   4736   4729     65   -570   -217       C  
 7636  C05 1US A 302     4550   4206   4194     77   -573   -213       C  
 7636  C05 1US A 302     4550   4206   4194     77   -573   -213       C  
 7637  C06 1US A 302     5275   4875   4874     57   -570   -199       C  
 7637  C06 1US A 302     5275   4875   4874     57   -570   -199       C  
 7638  C07 1US A 302     4860   4440   4434     70   -576   -198       C  
 7638  C07 1US A 302     4860   4440   4434     70   -576   -198       C  
 7639  C08 1US A 302     3835   3389   3417     96   -604   -175       C  
 7639  C08 1US A 302     3835   3389   3417     96   -604   -175       C  
 7640  C09 1US A 302     4746   4235   4309     88   -627   -148       C  
 7640  C09 1US A 302     4746   4235   4309     88   -627   -148       C  
 7641  O13 1US A 302     4390   4099   4078     86   -579   -232       O  
 7641  O13 1US A 302     4390   4099   4078     86   -579   -232       O  
 7642  O14 1US A 302     4351   3973   3993     22   -558   -211       O  
 7642  O14 1US A 302     4351   3973   3993     22   -558   -211       O  
 7643  C16 1US A 302     3722   3306   3371     32   -567   -200       C  
 7643  C16 1US A 302     3722   3306   3371     32   -567   -200       C  
 7644  C18 1US A 302     3304   2848   2977     74   -578   -168       C  
 7644  C18 1US A 302     3304   2848   2977     74   -578   -168       C  
 7645  C19 1US A 302     3427   2979   3099     80   -586   -159       C  
 7645  C19 1US A 302     3427   2979   3099     80   -586   -159       C  
 7646 CL1  1US A 302     4485   4097   4135     -7   -550   -232      CL  
 7646 CL1  1US A 302     4485   4097   4135     -7   -550   -232      CL  
 7691  C10 1US B 302     6129   4479   4967    625   -873   -376       C  
 7692  C15 1US B 302     5666   3465   4122    844  -1048   -374       C  
 7693  C17 1US B 302     5508   3284   3982    978  -1100   -446       C  
 7694  C20 1US B 302     5421   3358   3991    864  -1024   -412       C  
 7695  C01 1US B 302     6301   4193   4824    616   -954   -292       C  
 7696  C02 1US B 302     5795   3603   4255    665   -979   -303       C  
 7697  C03 1US B 302     6248   4075   4708    718  -1002   -311       C  
 7698  C04 1US B 302     5844   3771   4365    722   -998   -307       C  
 7699  C05 1US B 302     5575   3584   4158    674   -969   -295       C  
 7700  C06 1US B 302     5889   3878   4471    622   -949   -287       C  
 7701  C07 1US B 302     5873   3946   4521    573   -925   -276       C  
 7702  C08 1US B 302     6081   4283   4816    613   -915   -312       C  
 7703  C09 1US B 302     6401   4635   5162    627   -898   -353       C  
 7704  O13 1US B 302     5581   3522   4101    776  -1028   -320       O  
 7705  O14 1US B 302     6301   4037   4695    768  -1034   -322       O  
 7706  C16 1US B 302     5927   3641   4328    899  -1086   -390       C  
 7707  C18 1US B 302     5100   3024   3701    996  -1068   -486       C  
 7708  C19 1US B 302     5382   3379   4022    938  -1029   -468       C  
 7709 CL1  1US B 302     6357   3878   4594    866  -1110   -340      CL  
 7710  C11 1US B 302     7094   5471   5940    637   -843   -424       C  
 7755  C10 1US C 302     8914   6170   6002    653  -1178   -154       C  
 7756  C15 1US C 302     8045   5051   4671    297   -472      8       C  
 7757  C17 1US C 302     7185   4334   3893    243   -347    -12       C  
 7758  C20 1US C 302     8266   5408   5033    345   -577    -20       C  
 7759  C01 1US C 302     7405   4081   3805    443   -771     -9       C  
 7760  C02 1US C 302     6824   3498   3184    382   -651     10       C  
 7761  C03 1US C 302     6925   3783   3467    356   -598     14       C  
 7762  C04 1US C 302     7046   4083   3801    389   -661      2       C  
 7763  C05 1US C 302     7471   4515   4271    447   -770    -18       C  
 7764  C06 1US C 302     7508   4373   4133    475   -827    -24       C  
 7765  C07 1US C 302     7713   4589   4393    542   -948    -51       C  
 7766  C08 1US C 302     8648   5588   5393    583  -1034    -84       C  
 7767  C09 1US C 302     8581   5753   5590    626  -1110   -121       C  
 7768  O13 1US C 302     6350   3551   3268    363   -611      8       O  
 7769  O14 1US C 302     8225   5081   4732    298   -477     28       O  
 7770  C16 1US C 302     6963   3977   3565    244   -354     12       C  
 7771  C18 1US C 302     7682   4961   4523    289   -457    -37       C  
 7772  C19 1US C 302     8011   5289   4885    338   -568    -41       C  
 7773 CL1  1US C 302     8410   5263   4855    172   -201     42      CL  
 7818  C10 1US D 302     7849   6913   7799   1631  -2235  -1148       C  
 7819  C15 1US D 302     8129   8388   9546   1726  -2004  -1549       C  
 7820  C17 1US D 302     6010   6271   7496   1811  -1995  -1594       C  
 7821  C20 1US D 302     7892   7906   9040   1755  -2081  -1489       C  
 7822  C01 1US D 302     8232   8293   9390   1658  -2147  -1472       C  
 7823  C02 1US D 302     9058   9271  10415   1679  -2110  -1533       C  
 7824  C03 1US D 302     8411   8643   9734   1645  -2009  -1496       C  
 7825  C04 1US D 302     7272   7377   8373   1589  -1947  -1400       C  
 7826  C05 1US D 302     6770   6730   7682   1565  -1981  -1341       C  
 7827  C06 1US D 302     7300   7237   8237   1600  -2078  -1376       C  
 7828  C07 1US D 302     7298   7065   8019   1577  -2113  -1312       C  
 7829  C08 1US D 302     7908   7427   8392   1632  -2206  -1283       C  
 7830  C09 1US D 302     7710   7007   7900   1597  -2196  -1190       C  
 7831  O13 1US D 302     6692   6809   7759   1558  -1855  -1365       O  
 7832  O14 1US D 302     8894   9274  10415   1668  -1967  -1558       O  
 7833  C16 1US D 302     6905   7287   8490   1752  -1959  -1602       C  
 7834  C18 1US D 302     6922   6938   8137   1839  -2077  -1533       C  
 7835  C19 1US D 302     7995   7887   9041   1810  -2117  -1481       C  
 7836 CL1  1US D 302     9054   9739  10978   1709  -1847  -1683      CL  
 7837  C11 1US D 302     7494   6331   7235   1673  -2342  -1135       C  

$$$$
