@<TRIPOS>MOLECULE
/web/media/ligands/4OYR_ligand.pdb
 19 20 0 0 0
SMALL
GASTEIGER

@<TRIPOS>ATOM
      1 C           0.0560  -10.7410   32.3470 C.3     1  UNL1        0.0304
      2 C          -2.6980  -17.6610   28.5900 C.ar    1  UNL1        0.1559
      3 C          -1.6360  -19.1230   26.9900 C.ar    1  UNL1        0.0145
      4 C          -1.5940  -16.8110   28.5440 C.ar    1  UNL1        0.0384
      5 C          -3.1410  -15.1730   32.2690 C.ar    1  UNL1       -0.0006
      6 C          -3.2110  -16.3250   31.4790 C.ar    1  UNL1        0.0405
      7 C          -3.6930  -16.2430   30.1640 C.ar    1  UNL1        0.1839
      8 C          -4.1170  -15.0040   29.6510 C.ar    1  UNL1        0.2295
      9 C          -4.0540  -13.8630   30.4500 C.ar    1  UNL1        0.0413
     10 C          -3.5670  -13.9450   31.7510 C.ar    1  UNL1       -0.0144
     11 C          -3.4580  -12.6640   32.5780 C.3     1  UNL1        0.0521
     12 C          -2.3230  -11.7400   32.1700 C.2     1  UNL1       -0.0260
     13 C          -0.9540  -11.7820   32.8370 C.2     1  UNL1       -0.0300
     14 O          -4.5900  -14.8880   28.3370 O.3     1  UNL1       -0.2833
     15 O          -3.8130  -17.4090   29.4030 O.3     1  UNL1       -0.4494
     16 C          -2.7130  -18.8100   27.8080 C.ar    1  UNL1        0.0921
     17 C          -0.5310  -18.2700   26.9360 C.ar    1  UNL1        0.0011
     18 C          -0.5110  -17.1140   27.7190 C.ar    1  UNL1        0.0032
     19 CL         -4.1670  -19.8360   27.8390 Cl      1  UNL1       -0.0791
@<TRIPOS>BOND
     1     1    13    1
     2     2    15    1
     3     3    16   ar
     4     4     2   ar
     5     6     5   ar
     6     7     6   ar
     7     8     7   ar
     8     8     9   ar
     9     9    10   ar
    10    10     5   ar
    11    10    11    1
    12    12    11    1
    13    12    13    2
    14    14     8    1
    15    15     7    1
    16    16    19    1
    17    16     2   ar
    18    17     3   ar
    19    17    18   ar
    20    18     4   ar
