@<TRIPOS>MOLECULE
TCU
   45    46     1     0     0
SMALL
bcc


@<TRIPOS>ATOM
      1 H05        -20.8780    -7.5130   -31.2260 hc         0 TCU       0.044700
      2 H07        -21.9340    -8.6700   -33.7750 hc         0 TCU       0.040700
      3 H09        -20.2890   -10.4180   -33.1630 hc         0 TCU       0.039700
      4 H06        -21.1330    -6.7040   -32.8300 hc         0 TCU       0.044700
      5 H11        -18.2110    -8.9180   -33.4210 hc         0 TCU       0.039200
      6 H10        -19.7500    -9.3620   -31.7950 hc         0 TCU       0.039700
      7 H14        -18.3880    -9.2520   -35.6480 hc         0 TCU       0.032700
      8 H13        -19.9780    -8.4590   -35.7500 hc         0 TCU       0.032700
      9 H12        -19.4320    -7.6220   -33.7080 hc         0 TCU       0.039200
     10 H08        -22.2290    -9.4290   -32.1850 hc         0 TCU       0.040700
     11 H18        -19.2620    -3.5240   -30.0920 ha         0 TCU       0.143000
     12 H17        -21.9500    -2.3180   -31.7570 ha         0 TCU       0.151000
     13 H16        -22.7050    -4.4710   -32.7360 ha         0 TCU       0.139000
     14 H19        -16.8930    -2.8090   -30.0020 ha         0 TCU       0.131000
     15 H23        -20.3210     0.9380   -27.0240 hc         0 TCU       0.047367
     16 H22        -21.5790    -0.0870   -27.7540 hc         0 TCU       0.047367
     17 H21        -17.9470     0.8670   -28.0070 ha         0 TCU       0.133000
     18 H24        -20.8900     1.2690   -28.6780 hc         0 TCU       0.047367
     19 H20        -16.2400    -0.6860   -28.9220 ha         0 TCU       0.131000
     20 H15        -19.8600   -10.1480   -35.2020 hc         0 TCU       0.032700
     21 H01        -21.1940    -5.1840   -27.2930 ho         0 TCU       0.419000
     22 H02        -22.2740    -6.5320   -28.9800 ha         0 TCU       0.138000
     23 H03        -23.6280    -6.8050   -32.3890 hc         0 TCU       0.051200
     24 H04        -23.3280    -7.6110   -30.8950 hc         0 TCU       0.051200
     25 O          -21.4550    -4.3220   -27.6240 oh         0 TCU      -0.476100
     26 C          -21.7880    -4.4230   -28.9580 ca         0 TCU       0.129100
     27 C1         -22.1920    -5.6140   -29.5620 ca         0 TCU      -0.211000
     28 C2         -22.4900    -5.6080   -30.9300 ca         0 TCU      -0.035300
     29 C3         -22.8800    -6.9150   -31.6040 c3         0 TCU      -0.042100
     30 C4         -21.5180    -7.4190   -32.1030 c3         0 TCU      -0.076400
     31 C5         -21.5650    -8.7800   -32.7550 c3         0 TCU      -0.079400
     32 C6         -20.1740    -9.3970   -32.7980 c3         0 TCU      -0.077400
     33 C7         -19.2280    -8.6920   -33.7430 c3         0 TCU      -0.080400
     34 C8         -19.3740    -9.1730   -35.1900 c3         0 TCU      -0.093100
     35 C9         -22.4300    -4.4320   -31.6820 ca         0 TCU      -0.158000
     36 C10        -22.0340    -3.2130   -31.1410 ca         0 TCU      -0.100000
     37 C11        -21.7490    -3.1870   -29.7760 ca         0 TCU       0.051100
     38 O1         -21.3580    -2.0560   -29.1740 os         0 TCU      -0.235200
     39 C12        -19.9990    -1.7270   -29.1250 ca         0 TCU       0.121100
     40 C13        -18.9980    -2.5670   -29.6430 ca         0 TCU      -0.186000
     41 C14        -17.6650    -2.1660   -29.5780 ca         0 TCU      -0.105000
     42 C15        -17.2950    -0.9540   -28.9790 ca         0 TCU      -0.158000
     43 C16        -18.2540    -0.0800   -28.4520 ca         0 TCU      -0.107000
     44 C17        -19.6100    -0.4290   -28.5000 ca         0 TCU      -0.092300
     45 C18        -20.6730     0.4860   -27.9510 c3         0 TCU      -0.044800
@<TRIPOS>BOND
     1     1    30 1   
     2     2    31 1   
     3     3    32 1   
     4     4    30 1   
     5     5    33 1   
     6     6    32 1   
     7     7    34 1   
     8     8    34 1   
     9     9    33 1   
    10    10    31 1   
    11    11    40 1   
    12    12    36 1   
    13    13    35 1   
    14    14    41 1   
    15    15    45 1   
    16    16    45 1   
    17    17    43 1   
    18    18    45 1   
    19    19    42 1   
    20    20    34 1   
    21    21    25 1   
    22    22    27 1   
    23    23    29 1   
    24    24    29 1   
    25    25    26 1   
    26    26    27 ar  
    27    26    37 ar  
    28    27    28 ar  
    29    28    29 1   
    30    28    35 ar  
    31    29    30 1   
    32    30    31 1   
    33    31    32 1   
    34    32    33 1   
    35    33    34 1   
    36    35    36 ar  
    37    36    37 ar  
    38    37    38 1   
    39    38    39 1   
    40    39    40 ar  
    41    39    44 ar  
    42    40    41 ar  
    43    41    42 ar  
    44    42    43 ar  
    45    43    44 ar  
    46    44    45 1   
@<TRIPOS>SUBSTRUCTURE
     1 TCU         1 TEMP              0 ****  ****    0 ROOT
