@<TRIPOS>MOLECULE
TCU
   45    46     1     0     0
SMALL
bcc


@<TRIPOS>ATOM
      1 C1         -22.1920    -5.6140   -29.5620 ca      1271 TCU      -0.211000
      2 C2         -22.4900    -5.6080   -30.9300 ca      1271 TCU      -0.035300
      3 C3         -22.4300    -4.4320   -31.6820 ca      1271 TCU      -0.158000
      4 C4         -22.0340    -3.2130   -31.1410 ca      1271 TCU      -0.100000
      5 C5         -21.7490    -3.1870   -29.7760 ca      1271 TCU       0.051100
      6 C6         -21.7880    -4.4230   -28.9580 ca      1271 TCU       0.129100
      7 O7         -21.3580    -2.0560   -29.1740 os      1271 TCU      -0.235200
      8 C8         -19.9990    -1.7270   -29.1250 ca      1271 TCU       0.121100
      9 C9         -18.9980    -2.5670   -29.6430 ca      1271 TCU      -0.186000
     10 C10        -17.6650    -2.1660   -29.5780 ca      1271 TCU      -0.105000
     11 C11        -17.2950    -0.9540   -28.9790 ca      1271 TCU      -0.158000
     12 C12        -18.2540    -0.0800   -28.4520 ca      1271 TCU      -0.107000
     13 C13        -19.6100    -0.4290   -28.5000 ca      1271 TCU      -0.092300
     14 C14        -20.6730     0.4860   -27.9510 c3      1271 TCU      -0.044800
     15 C16        -22.8800    -6.9150   -31.6040 c3      1271 TCU      -0.042100
     16 C17        -21.5180    -7.4190   -32.1030 c3      1271 TCU      -0.076400
     17 O17        -21.4550    -4.3220   -27.6240 oh      1271 TCU      -0.476100
     18 C18        -21.5650    -8.7800   -32.7550 c3      1271 TCU      -0.079400
     19 C19        -20.1740    -9.3970   -32.7980 c3      1271 TCU      -0.077400
     20 C20        -19.2280    -8.6920   -33.7430 c3      1271 TCU      -0.080400
     21 C21        -19.3740    -9.1730   -35.1900 c3      1271 TCU      -0.093100
     22 H01        -22.2740    -6.5320   -28.9800 ha      1271 TCU       0.138000
     23 H02        -22.7050    -4.4710   -32.7360 ha      1271 TCU       0.139000
     24 H03        -21.9500    -2.3180   -31.7570 ha      1271 TCU       0.151000
     25 H04        -19.2620    -3.5240   -30.0920 ha      1271 TCU       0.143000
     26 H05        -16.8930    -2.8090   -30.0020 ha      1271 TCU       0.131000
     27 H06        -16.2400    -0.6860   -28.9220 ha      1271 TCU       0.131000
     28 H07        -17.9470     0.8670   -28.0070 ha      1271 TCU       0.133000
     29 H08        -21.5790    -0.0870   -27.7540 hc      1271 TCU       0.047367
     30 H09        -20.3210     0.9380   -27.0240 hc      1271 TCU       0.047367
     31 H10        -20.8900     1.2690   -28.6780 hc      1271 TCU       0.047367
     32 H11        -23.6280    -6.8050   -32.3890 hc      1271 TCU       0.051200
     33 H12        -23.3280    -7.6110   -30.8950 hc      1271 TCU       0.051200
     34 H13        -20.8780    -7.5130   -31.2260 hc      1271 TCU       0.044700
     35 H14        -21.1330    -6.7040   -32.8300 hc      1271 TCU       0.044700
     36 H15        -21.1940    -5.1840   -27.2930 ho      1271 TCU       0.419000
     37 H16        -21.9340    -8.6700   -33.7750 hc      1271 TCU       0.040700
     38 H17        -22.2290    -9.4290   -32.1850 hc      1271 TCU       0.040700
     39 H18        -20.2890   -10.4180   -33.1630 hc      1271 TCU       0.039700
     40 H19        -19.7500    -9.3620   -31.7950 hc      1271 TCU       0.039700
     41 H20        -18.2110    -8.9180   -33.4210 hc      1271 TCU       0.039200
     42 H21        -19.4320    -7.6220   -33.7080 hc      1271 TCU       0.039200
     43 H22        -19.9780    -8.4590   -35.7500 hc      1271 TCU       0.032700
     44 H23        -18.3880    -9.2520   -35.6480 hc      1271 TCU       0.032700
     45 H24        -19.8600   -10.1480   -35.2020 hc      1271 TCU       0.032700
@<TRIPOS>BOND
     1     1     2 ar  
     2     1     6 ar  
     3     1    22 1   
     4     2     3 ar  
     5     2    15 1   
     6     3     4 ar  
     7     3    23 1   
     8     4     5 ar  
     9     4    24 1   
    10     5     6 ar  
    11     5     7 1   
    12     6    17 1   
    13     7     8 1   
    14     8     9 ar  
    15     8    13 ar  
    16     9    10 ar  
    17     9    25 1   
    18    10    11 ar  
    19    10    26 1   
    20    11    12 ar  
    21    11    27 1   
    22    12    13 ar  
    23    12    28 1   
    24    13    14 1   
    25    14    29 1   
    26    14    30 1   
    27    14    31 1   
    28    15    16 1   
    29    15    32 1   
    30    15    33 1   
    31    16    18 1   
    32    16    34 1   
    33    16    35 1   
    34    17    36 1   
    35    18    19 1   
    36    18    37 1   
    37    18    38 1   
    38    19    20 1   
    39    19    39 1   
    40    19    40 1   
    41    20    21 1   
    42    20    41 1   
    43    20    42 1   
    44    21    43 1   
    45    21    44 1   
    46    21    45 1   
@<TRIPOS>SUBSTRUCTURE
     1 TCU         1 TEMP              0 ****  ****    0 ROOT
