@<TRIPOS>MOLECULE
1UN
   85    88     1     0     0
SMALL
bcc


@<TRIPOS>ATOM
      1 H07         15.4670    27.8080    11.6370 hc         0 1UN       0.039200
      2 H09         17.9090    29.5540    12.2590 hc         0 1UN       0.059200
      3 H08         15.6480    29.5160    11.0970 hc         0 1UN       0.039200
      4 H10         16.5990    29.2550    13.3530 hc         0 1UN       0.059200
      5 H13         20.2530    27.0770    10.6210 hc         0 1UN       0.057700
      6 H12         19.4260    28.5920    11.0570 hc         0 1UN       0.057700
      7 H16         22.5860    26.5780    12.3410 hn         0 1UN       0.306500
      8 H11         20.6950    26.6620    13.1020 h1         0 1UN       0.025700
      9 H17         25.5970    29.2340    12.4160 hc         0 1UN       0.045700
     10 H14         18.8150    26.5170    14.3560 h1         0 1UN       0.047200
     11 H20         23.4830    29.6430    10.5210 hc         0 1UN       0.045700
     12 H19         24.9440    28.1080    13.6300 hc         0 1UN       0.045700
     13 H30         20.4930    28.2730    17.1780 ho         0 1UN       0.402000
     14 H18         23.9850    29.5170    13.1150 hc         0 1UN       0.045700
     15 H25         25.0370    26.4930    10.3810 hc         0 1UN       0.045700
     16 H24         24.3030    25.7800    11.8380 hc         0 1UN       0.045700
     17 H15         17.9620    27.9840    14.8580 h1         0 1UN       0.047200
     18 H23         25.8200    26.7010    11.9650 hc         0 1UN       0.045700
     19 H28         18.8740    29.7160    15.6250 h1         0 1UN       0.052700
     20 H22         23.3670    28.0990     9.6430 hc         0 1UN       0.045700
     21 H27         20.2470    27.4260    15.5340 h1         0 1UN       0.042200
     22 H38         14.8920    33.2150    15.3170 hc         0 1UN       0.057367
     23 H33         22.1690    31.2300    16.8110 h1         0 1UN       0.112700
     24 H32         22.6050    30.0810    15.5270 h1         0 1UN       0.112700
     25 H31         20.1450    32.1600    16.9910 hn         0 1UN       0.326500
     26 H34         19.9890    34.4050    17.1160 ha         0 1UN       0.149000
     27 H37         14.5080    35.4270    17.7670 ho         0 1UN       0.419000
     28 H36         16.4250    36.1140    18.7680 ha         0 1UN       0.134000
     29 H35         18.8870    35.9910    18.6460 ha         0 1UN       0.138000
     30 H21         24.9600    28.8350     9.9430 hc         0 1UN       0.045700
     31 H42         22.2020    37.0740    14.9580 ha         0 1UN       0.131000
     32 H41         22.4190    34.8880    13.8140 ha         0 1UN       0.144000
     33 H40         15.5200    31.7910    16.1790 hc         0 1UN       0.057367
     34 H43         22.3740    37.2030    17.4270 ha         0 1UN       0.130000
     35 H39         16.3140    32.3500    14.6870 hc         0 1UN       0.057367
     36 H45         22.8780    32.9380    17.6210 ha         0 1UN       0.144000
     37 H44         22.7000    35.1390    18.7560 ha         0 1UN       0.131000
     38 H26         21.4970    28.4400    14.7950 h1         0 1UN       0.042200
     39 H29         20.5580    30.8640    14.3020 h1         0 1UN       0.104700
     40 H01         16.8050    26.7900    12.9880 hc         0 1UN       0.051700
     41 H02         18.5760    25.7710    11.8760 hc         0 1UN       0.037700
     42 H03         16.7660    25.9940    10.4610 hc         0 1UN       0.038200
     43 H04         18.1870    26.4920     9.5050 hc         0 1UN       0.038200
     44 H05         16.1650    27.9920     9.2740 hc         0 1UN       0.039200
     45 H06         17.6540    28.8230     9.8040 hc         0 1UN       0.039200
     46 C           17.6520    27.4490    12.7990 c3         0 1UN      -0.051700
     47 C1          18.3740    26.8110    11.6210 c3         0 1UN      -0.057700
     48 C2          17.5420    26.7500    10.3450 c3         0 1UN      -0.070400
     49 C3          16.8880    28.0990    10.0830 c3         0 1UN      -0.077400
     50 C4          16.1660    28.5860    11.3310 c3         0 1UN      -0.076400
     51 C5          17.1240    28.8360    12.4940 c3         0 1UN      -0.079400
     52 N           19.7000    28.3220    13.7270 n3         0 1UN      -0.715600
     53 C6          20.4650    27.6440    12.6890 c3         0 1UN       0.126500
     54 C7          19.6630    27.5800    11.3870 c3         0 1UN      -0.072400
     55 C8          18.5190    27.5190    14.0440 c3         0 1UN       0.160800
     56 C9          21.7100    28.3770    12.3210 c          0 1UN       0.659100
     57 N1          22.7420    27.5550    12.1370 n          0 1UN      -0.571900
     58 C10         24.0630    27.9180    11.6750 c3         0 1UN       0.124400
     59 C11         24.6920    28.7540    12.7890 c3         0 1UN      -0.108433
     60 C12         23.9610    28.6780    10.3500 c3         0 1UN      -0.108433
     61 C13         24.8630    26.6300    11.4480 c3         0 1UN      -0.108433
     62 O           21.6810    29.5930    12.1850 o          0 1UN      -0.604100
     63 C14         20.4270    28.3490    14.9830 c3         0 1UN       0.137800
     64 C15         19.9360    29.5350    15.7930 c3         0 1UN       0.117100
     65 C16         20.5990    30.8460    15.3910 c3         0 1UN       0.126700
     66 O1          20.2180    29.1920    17.1330 oh         0 1UN      -0.606800
     67 N2          19.8830    31.9160    16.0470 n          0 1UN      -0.557900
     68 C17         22.0740    31.0060    15.7490 c3         0 1UN      -0.068300
     69 C18         18.8960    32.5950    15.4700 c          0 1UN       0.677700
     70 O2          18.5620    32.4850    14.3050 o          0 1UN      -0.621100
     71 C19         18.1700    33.5500    16.3600 ca         0 1UN      -0.108600
     72 C20         18.9000    34.4270    17.1640 ca         0 1UN      -0.130000
     73 C21         18.2810    35.3300    18.0260 ca         0 1UN      -0.102000
     74 C22         16.8960    35.3930    18.1000 ca         0 1UN      -0.195000
     75 C23         16.1010    34.5470    17.3310 ca         0 1UN       0.111100
     76 C24         16.6960    33.5600    16.4060 ca         0 1UN      -0.051300
     77 O3          14.7860    34.5830    17.4030 oh         0 1UN      -0.497100
     78 C25         15.7930    32.6670    15.5910 c3         0 1UN      -0.059800
     79 S           22.7670    32.3280    14.8010 ss         0 1UN      -0.160000
     80 C26         22.6520    33.7870    15.6490 ca         0 1UN      -0.006100
     81 C27         22.4720    34.9430    14.9010 ca         0 1UN      -0.144000
     82 C28         22.3600    36.1670    15.5410 ca         0 1UN      -0.113000
     83 C29         22.4490    36.2380    16.9250 ca         0 1UN      -0.145000
     84 C30         22.6340    35.0800    17.6700 ca         0 1UN      -0.113000
     85 C31         22.7350    33.8470    17.0370 ca         0 1UN      -0.144000
@<TRIPOS>BOND
     1     1    50 1   
     2     2    51 1   
     3     3    50 1   
     4     4    51 1   
     5     5    54 1   
     6     6    54 1   
     7     7    57 1   
     8     8    53 1   
     9     9    59 1   
    10    10    55 1   
    11    11    60 1   
    12    12    59 1   
    13    13    66 1   
    14    14    59 1   
    15    15    61 1   
    16    16    61 1   
    17    17    55 1   
    18    18    61 1   
    19    19    64 1   
    20    20    60 1   
    21    21    63 1   
    22    22    78 1   
    23    23    68 1   
    24    24    68 1   
    25    25    67 1   
    26    26    72 1   
    27    27    77 1   
    28    28    74 1   
    29    29    73 1   
    30    30    60 1   
    31    31    82 1   
    32    32    81 1   
    33    33    78 1   
    34    34    83 1   
    35    35    78 1   
    36    36    85 1   
    37    37    84 1   
    38    38    63 1   
    39    39    65 1   
    40    40    46 1   
    41    41    47 1   
    42    42    48 1   
    43    43    48 1   
    44    44    49 1   
    45    45    49 1   
    46    46    47 1   
    47    46    51 1   
    48    46    55 1   
    49    47    48 1   
    50    47    54 1   
    51    48    49 1   
    52    49    50 1   
    53    50    51 1   
    54    52    53 1   
    55    52    55 1   
    56    52    63 1   
    57    53    54 1   
    58    53    56 1   
    59    56    57 1   
    60    56    62 2   
    61    57    58 1   
    62    58    59 1   
    63    58    60 1   
    64    58    61 1   
    65    63    64 1   
    66    64    65 1   
    67    64    66 1   
    68    65    67 1   
    69    65    68 1   
    70    67    69 1   
    71    68    79 1   
    72    69    70 2   
    73    69    71 1   
    74    71    72 ar  
    75    71    76 ar  
    76    72    73 ar  
    77    73    74 ar  
    78    74    75 ar  
    79    75    76 ar  
    80    75    77 1   
    81    76    78 1   
    82    79    80 1   
    83    80    81 ar  
    84    80    85 ar  
    85    81    82 ar  
    86    82    83 ar  
    87    83    84 ar  
    88    84    85 ar  
@<TRIPOS>SUBSTRUCTURE
     1 1UN         1 TEMP              0 ****  ****    0 ROOT
