@<TRIPOS>MOLECULE
TCU
   45    46     1     0     0
SMALL
bcc


@<TRIPOS>ATOM
      1 H05         35.7350    -2.3640    15.0050 hc         0 TCU       0.045200
      2 H07         36.7600    -1.5160    12.4460 hc         0 TCU       0.039700
      3 H09         36.5110    -3.9780    12.2380 hc         0 TCU       0.039700
      4 H06         37.0570    -3.4080    14.2310 hc         0 TCU       0.045200
      5 H11         33.7690    -3.4050    12.9740 hc         0 TCU       0.039200
      6 H10         35.5500    -2.9290    11.0760 hc         0 TCU       0.039700
      7 H14         34.2210    -4.5900    10.3780 hc         0 TCU       0.033033
      8 H13         32.7210    -4.0380    11.1610 hc         0 TCU       0.033033
      9 H12         34.7470    -4.9490    13.0630 hc         0 TCU       0.039200
     10 H08         35.0760    -1.5290    13.1380 hc         0 TCU       0.039700
     11 H18         39.7010    -5.8840    16.5910 ha         0 TCU       0.149000
     12 H17         41.8810    -3.2930    15.7500 ha         0 TCU       0.149000
     13 H16         40.2390    -2.0350    14.3470 ha         0 TCU       0.138000
     14 H19         39.6670    -8.3760    16.5710 ha         0 TCU       0.135000
     15 H23         42.6560    -4.8250    20.0990 hc         0 TCU       0.048700
     16 H22         44.0430    -5.4360    19.1650 hc         0 TCU       0.048700
     17 H21         42.8930    -8.4580    19.4340 ha         0 TCU       0.135000
     18 H24         43.4470    -6.3480    20.5730 hc         0 TCU       0.048700
     19 H20         41.2760    -9.6590    17.9630 ha         0 TCU       0.134000
     20 H15         33.3430    -5.6740    11.4830 hc         0 TCU       0.033033
     21 H01         38.8570    -3.4050    19.7410 ho         0 TCU       0.437000
     22 H02         37.2220    -2.6250    17.3960 ha         0 TCU       0.154000
     23 H03         38.1600    -1.0030    14.1310 hc         0 TCU       0.051200
     24 H04         37.1060    -0.7600    15.5680 hc         0 TCU       0.051200
     25 O           38.7910    -4.0650    19.0470 oh         0 TCU      -0.492100
     26 C           39.1610    -3.4920    17.8190 ca         0 TCU       0.132100
     27 C1          38.2420    -2.7720    17.0400 ca         0 TCU      -0.151000
     28 C2          38.6370    -2.2390    15.7980 ca         0 TCU      -0.047300
     29 C3          37.6210    -1.4900    14.9440 c3         0 TCU      -0.040100
     30 C4          36.5850    -2.4300    14.3260 c3         0 TCU      -0.076400
     31 C5          35.9980    -2.0880    12.9760 c3         0 TCU      -0.079400
     32 C6          35.6760    -3.2910    12.0960 c3         0 TCU      -0.078400
     33 C7          34.4300    -4.1000    12.4570 c3         0 TCU      -0.080400
     34 C8          33.6220    -4.6390    11.2870 c3         0 TCU      -0.093100
     35 C9          39.9420    -2.4350    15.3160 ca         0 TCU      -0.154000
     36 C10         40.8580    -3.1530    16.1000 ca         0 TCU      -0.107000
     37 C11         40.4600    -3.6920    17.3360 ca         0 TCU      -0.001900
     38 O1          41.3880    -4.3790    18.1140 os         0 TCU      -0.260200
     39 C12         41.3120    -5.7730    18.0320 ca         0 TCU       0.102100
     40 C13         40.3970    -6.4460    17.2130 ca         0 TCU      -0.176000
     41 C14         40.3830    -7.8470    17.1990 ca         0 TCU      -0.107000
     42 C15         41.2840    -8.5690    17.9880 ca         0 TCU      -0.149000
     43 C16         42.1970    -7.8970    18.8110 ca         0 TCU      -0.110000
     44 C17         42.2050    -6.4960    18.8240 ca         0 TCU      -0.089300
     45 C18         43.1550    -5.7210    19.7300 c3         0 TCU      -0.046800
@<TRIPOS>BOND
     1     1    30 1   
     2     2    31 1   
     3     3    32 1   
     4     4    30 1   
     5     5    33 1   
     6     6    32 1   
     7     7    34 1   
     8     8    34 1   
     9     9    33 1   
    10    10    31 1   
    11    11    40 1   
    12    12    36 1   
    13    13    35 1   
    14    14    41 1   
    15    15    45 1   
    16    16    45 1   
    17    17    43 1   
    18    18    45 1   
    19    19    42 1   
    20    20    34 1   
    21    21    25 1   
    22    22    27 1   
    23    23    29 1   
    24    24    29 1   
    25    25    26 1   
    26    26    27 ar  
    27    26    37 ar  
    28    27    28 ar  
    29    28    29 1   
    30    28    35 ar  
    31    29    30 1   
    32    30    31 1   
    33    31    32 1   
    34    32    33 1   
    35    33    34 1   
    36    35    36 ar  
    37    36    37 ar  
    38    37    38 1   
    39    38    39 1   
    40    39    40 ar  
    41    39    44 ar  
    42    40    41 ar  
    43    41    42 ar  
    44    42    43 ar  
    45    43    44 ar  
    46    44    45 1   
@<TRIPOS>SUBSTRUCTURE
     1 TCU         1 TEMP              0 ****  ****    0 ROOT
