@<TRIPOS>MOLECULE
/web/media/ligands/4OHU_ligand.pdb
 21 22 0 0 0
SMALL
GASTEIGER

@<TRIPOS>ATOM
      1 C           4.7620   19.3850   46.2790 C.ar    1  UNL1       -0.0009
      2 C           5.4270   20.5790   46.5730 C.ar    1  UNL1        0.0405
      3 C           6.4220   20.5990   47.5580 C.ar    1  UNL1        0.1839
      4 C           6.7380   19.4300   48.2550 C.ar    1  UNL1        0.2295
      5 C           6.0770   18.2240   47.9740 C.ar    1  UNL1        0.0410
      6 C           5.0950   18.2200   46.9800 C.ar    1  UNL1       -0.0188
      7 C           4.3090   16.9370   46.7330 C.3     1  UNL1        0.0265
      8 C           4.5790   16.1300   45.4780 C.3     1  UNL1        0.0047
      9 C           6.0020   16.0050   44.9710 C.3     1  UNL1        0.0003
     10 C           6.3220   14.7050   44.2380 C.3     1  UNL1        0.0000
     11 C           6.8760   14.8250   42.8280 C.3     1  UNL1        0.0000
     12 C           5.8870   14.5850   41.6890 C.3     1  UNL1        0.0000
     13 O           7.7330   19.5020   49.2140 O.3     1  UNL1       -0.2833
     14 O           7.0610   21.8120   47.8670 O.3     1  UNL1       -0.4498
     15 C           8.3280   21.9450   47.2730 C.ar    1  UNL1        0.1515
     16 C           9.0820   23.0790   47.5540 C.ar    1  UNL1        0.0690
     17 C          10.3490   23.2810   47.0130 C.ar    1  UNL1        0.0098
     18 C          10.8700   22.3160   46.1460 C.ar    1  UNL1        0.0007
     19 C          10.1220   21.1750   45.8420 C.ar    1  UNL1        0.0032
     20 C           8.8570   20.9880   46.4130 C.ar    1  UNL1        0.0380
     21 BR          8.3250   24.3820   48.7350 Br      1  UNL1       -0.0458
@<TRIPOS>BOND
     1     1     2   ar
     2     1     6   ar
     3     2     3   ar
     4     3    14    1
     5     3     4   ar
     6     4    13    1
     7     5     4   ar
     8     6     5   ar
     9     7     6    1
    10     8     7    1
    11     9     8    1
    12    10     9    1
    13    11    10    1
    14    12    11    1
    15    15    16   ar
    16    15    14    1
    17    16    21    1
    18    17    16   ar
    19    18    17   ar
    20    19    18   ar
    21    19    20   ar
    22    20    15   ar
