REMARK  Name = /web/media/ligands/4OHU_ligand.pdb
REMARK  7 active torsions:
REMARK  status: ('A' for Active; 'I' for Inactive)
REMARK    1  A    between atoms: C_3  and  O_14
REMARK    2  A    between atoms: C_6  and  C_7
REMARK    3  A    between atoms: C_7  and  C_8
REMARK    4  A    between atoms: C_8  and  C_9
REMARK    5  A    between atoms: C_9  and  C_10
REMARK    6  A    between atoms: C_10  and  C_11
REMARK    7  A    between atoms: O_14  and  C_15
REMARK                            x       y       z     vdW  Elec       q    Type
REMARK                         _______ _______ _______ _____ _____    ______ ____
ROOT
ATOM      1  C   UNL     1       4.762  19.385  46.279  0.00  0.00    -0.001 A 
ATOM      2  C   UNL     1       5.095  18.220  46.980  0.00  0.00    -0.019 A 
ATOM      3  C   UNL     1       6.077  18.224  47.974  0.00  0.00    +0.041 A 
ATOM      4  C   UNL     1       6.738  19.430  48.255  0.00  0.00    +0.230 A 
ATOM      5  O   UNL     1       7.733  19.502  49.214  0.00  0.00    -0.283 OA
ATOM      6  C   UNL     1       6.422  20.599  47.558  0.00  0.00    +0.184 A 
ATOM      7  C   UNL     1       5.427  20.579  46.573  0.00  0.00    +0.040 A 
ENDROOT
BRANCH   2   8
ATOM      8  C   UNL     1       4.309  16.937  46.733  0.00  0.00    +0.026 C 
BRANCH   8   9
ATOM      9  C   UNL     1       4.579  16.130  45.478  0.00  0.00    +0.005 C 
BRANCH   9  10
ATOM     10  C   UNL     1       6.002  16.005  44.971  0.00  0.00    +0.000 C 
BRANCH  10  11
ATOM     11  C   UNL     1       6.322  14.705  44.238  0.00  0.00    +0.000 C 
BRANCH  11  12
ATOM     12  C   UNL     1       6.876  14.825  42.828  0.00  0.00    +0.000 C 
ATOM     13  C   UNL     1       5.887  14.585  41.689  0.00  0.00    +0.000 C 
ENDBRANCH  11  12
ENDBRANCH  10  11
ENDBRANCH   9  10
ENDBRANCH   8   9
ENDBRANCH   2   8
BRANCH   6  14
ATOM     14  O   UNL     1       7.061  21.812  47.867  0.00  0.00    -0.450 OA
BRANCH  14  15
ATOM     15  C   UNL     1       8.328  21.945  47.273  0.00  0.00    +0.152 A 
ATOM     16  C   UNL     1       8.857  20.988  46.413  0.00  0.00    +0.038 A 
ATOM     17  C   UNL     1      10.122  21.175  45.842  0.00  0.00    +0.003 A 
ATOM     18  C   UNL     1      10.870  22.316  46.146  0.00  0.00    +0.001 A 
ATOM     19  C   UNL     1      10.349  23.281  47.013  0.00  0.00    +0.010 A 
ATOM     20  C   UNL     1       9.082  23.079  47.554  0.00  0.00    +0.069 A 
ATOM     21 BR   UNL     1       8.325  24.382  48.735  0.00  0.00    -0.046 Br
ENDBRANCH  14  15
ENDBRANCH   6  14
TORSDOF 7
