@<TRIPOS>MOLECULE
YKI
   52    58     1     0     0
SMALL
bcc


@<TRIPOS>ATOM
      1 C1          13.3100    14.4050    26.4850 ca      1224 YKI       0.362200
      2 N1          13.0260    14.6140    27.8340 nb      1224 YKI      -0.653000
      3 C2          11.7160    14.6960    28.2950 ca      1224 YKI       0.405200
      4 N2           9.2910    14.5930    27.4880 na      1224 YKI      -0.266300
      5 C3          12.2830    14.2610    25.5220 ca      1224 YKI      -0.180300
      6 N3           9.7400    14.2580    25.3430 nc      1224 YKI      -0.549100
      7 C4           8.7580    14.4110    26.2680 cd      1224 YKI       0.477400
      8 N4           3.5690    11.9560    24.6550 n       1224 YKI      -0.561900
      9 C5          10.9530    14.3440    25.9690 ca      1224 YKI       0.089400
     10 N5          -1.1620    10.2670    26.1340 nb      1224 YKI      -0.654000
     11 C6          10.6580    14.5590    27.3740 ca      1224 YKI      -0.204500
     12 N6          -2.3590    11.5620    24.3860 na      1224 YKI      -0.288100
     13 C7           7.3310    14.4050    26.0300 ca      1224 YKI      -0.108900
     14 C8           4.4750    14.5760    25.6390 ca      1224 YKI      -0.084000
     15 C9           5.1590    15.5770    26.3920 ca      1224 YKI      -0.136000
     16 C10          6.5780    15.4750    26.5770 ca      1224 YKI      -0.091000
     17 C11          2.4440    11.4850    24.0790 c       1224 YKI       0.675700
     18 C12          1.2430    11.0110    24.8590 ca      1224 YKI      -0.056600
     19 O13          2.4240    11.4800    22.8390 o       1224 YKI      -0.591100
     20 C14          1.2920    10.1820    26.0380 ca      1224 YKI      -0.252300
     21 C15          0.0470     9.8260    26.6640 ca      1224 YKI       0.405200
     22 C16          4.5710    12.3870    24.2720 c3      1224 YKI       0.193300
     23 C17          5.1960    13.4650    25.0650 ca      1224 YKI      -0.118300
     24 C18          6.5850    13.3350    25.2300 cp      1224 YKI       0.003000
     25 C19          5.8240    11.5170    23.9560 ca      1224 YKI      -0.106300
     26 C20          7.0090    12.1050    24.5250 cp      1224 YKI      -0.048000
     27 C21          8.2930    11.4330    24.3260 ca      1224 YKI      -0.098000
     28 C22          8.3700    10.2140    23.5750 ca      1224 YKI      -0.127000
     29 C23          7.1600     9.6370    23.0090 ca      1224 YKI      -0.123000
     30 C24          5.8960    10.2880    23.1980 ca      1224 YKI      -0.105000
     31 C25         -0.0800    11.4560    24.3250 ca      1224 YKI      -0.159100
     32 C26         -1.2240    11.0730    24.9920 ca      1224 YKI       0.416800
     33 C27         -1.9350    12.2990    23.2940 cc      1224 YKI      -0.096100
     34 C28         -0.5270    12.2640    23.2210 cd      1224 YKI      -0.168200
     35 H01         14.3500    14.3510    26.1640 h4      1224 YKI       0.024100
     36 H02         11.5110    14.8640    29.3520 h4      1224 YKI       0.024100
     37 H03          8.7730    14.7310    28.3440 hn      1224 YKI       0.313700
     38 H04         12.5150    14.0920    24.4710 ha      1224 YKI       0.159000
     39 H05          3.5260    11.9250    25.6640 hn      1224 YKI       0.319500
     40 H06         -3.3140    11.4120    24.6800 hn      1224 YKI       0.312700
     41 H07          3.3970    14.6510    25.4960 ha      1224 YKI       0.148000
     42 H08          4.6080    16.4130    26.8230 ha      1224 YKI       0.141000
     43 H09          7.0930    16.2430    27.1550 ha      1224 YKI       0.148000
     44 H10          2.2430     9.8360    26.4420 ha      1224 YKI       0.146000
     45 H11          0.0500     9.2060    27.5600 h4      1224 YKI       0.026100
     46 H12          4.0690    12.6670    23.3460 h1      1224 YKI       0.120700
     47 H13          9.1990    11.8630    24.7520 ha      1224 YKI       0.146000
     48 H14          9.3310     9.7210    23.4290 ha      1224 YKI       0.137000
     49 H15          7.2140     8.7090    22.4400 ha      1224 YKI       0.136000
     50 H16          4.9910     9.8570    22.7710 ha      1224 YKI       0.144000
     51 H17         -2.5880    12.8250    22.5980 h4      1224 YKI       0.173000
     52 H18          0.1000    12.7530    22.4750 ha      1224 YKI       0.178000
@<TRIPOS>BOND
     1     1     2 ar  
     2     1     5 ar  
     3     1    35 1   
     4     2     3 ar  
     5     3    11 ar  
     6     3    36 1   
     7     4     7 1   
     8     4    11 1   
     9     4    37 1   
    10     5     9 ar  
    11     5    38 1   
    12     6     7 2   
    13     6     9 1   
    14     7    13 1   
    15     8    17 1   
    16     8    22 1   
    17     8    39 1   
    18     9    11 ar  
    19    10    21 ar  
    20    10    32 ar  
    21    12    32 1   
    22    12    33 1   
    23    12    40 1   
    24    13    16 ar  
    25    13    24 ar  
    26    14    15 ar  
    27    14    23 ar  
    28    14    41 1   
    29    15    16 ar  
    30    15    42 1   
    31    16    43 1   
    32    17    18 1   
    33    17    19 2   
    34    18    20 ar  
    35    18    31 ar  
    36    20    21 ar  
    37    20    44 1   
    38    21    45 1   
    39    22    23 1   
    40    22    25 1   
    41    22    46 1   
    42    23    24 ar  
    43    24    26 1   
    44    25    26 ar  
    45    25    30 ar  
    46    26    27 ar  
    47    27    28 ar  
    48    27    47 1   
    49    28    29 ar  
    50    28    48 1   
    51    29    30 ar  
    52    29    49 1   
    53    30    50 1   
    54    31    32 ar  
    55    31    34 1   
    56    33    34 2   
    57    33    51 1   
    58    34    52 1   
@<TRIPOS>SUBSTRUCTURE
     1 YKI         1 TEMP              0 ****  ****    0 ROOT
