@<TRIPOS>MOLECULE
YKI
   52    59     1     0     0
SMALL
bcc


@<TRIPOS>ATOM
      1 H08          7.0930    16.2430    27.1550 ha         0 YKI       0.149000
      2 H07          4.6080    16.4130    26.8230 ha         0 YKI       0.142000
      3 H17         -2.5880    12.8250    22.5980 h4         0 YKI       0.179000
      4 H13          9.1990    11.8630    24.7520 ha         0 YKI       0.148000
      5 H06          3.3970    14.6510    25.4960 ha         0 YKI       0.147000
      6 H11          0.0500     9.2060    27.5600 h4         0 YKI       0.166000
      7 H12          4.0690    12.6670    23.3460 h1         0 YKI       0.159000
      8 H02         11.5110    14.8640    29.3520 h4         0 YKI       0.175000
      9 H01         14.3500    14.3510    26.1640 h4         0 YKI       0.161000
     10 H14          9.3310     9.7210    23.4290 ha         0 YKI       0.139000
     11 H10          2.2430     9.8360    26.4420 hc         0 YKI       0.130000
     12 H04          9.5980    14.1060    24.3550 hn         0 YKI       0.265000
     13 H09          1.9300    10.5480    25.5680 DU         0 YKI       0.132000
     14 H03         12.5150    14.0920    24.4710 ha         0 YKI       0.147000
     15 H15          7.2140     8.7090    22.4400 ha         0 YKI       0.137000
     16 H16          4.9910     9.8570    22.7710 ha         0 YKI       0.143000
     17 H18          0.1000    12.7530    22.4750 ha         0 YKI       0.188000
     18 H05          3.5260    11.9250    25.6640 hn         0 YKI       0.231000
     19 C           13.3100    14.4050    26.4850 c2         0 YKI      -0.060000
     20 N           13.0260    14.6140    27.8340 n2         0 YKI      -0.157000
     21 C1          11.7160    14.6960    28.2950 c2         0 YKI       0.000000
     22 N1           9.2910    14.5930    27.4880 n2         0 YKI      -0.103000
     23 C2          12.2830    14.2610    25.5220 c2         0 YKI      -0.183000
     24 N2           9.7400    14.2580    25.3430 na         0 YKI      -0.230000
     25 C3           8.7580    14.4110    26.2680 c2         0 YKI       0.050000
     26 N3           3.5690    11.9560    24.6550 n          0 YKI      -0.368000
     27 C4          10.9530    14.3440    25.9690 c2         0 YKI      -0.005000
     28 N4          -1.1620    10.2670    26.1340 n2         0 YKI      -0.084000
     29 C5          10.6580    14.5590    27.3740 c2         0 YKI      -0.138000
     30 N5          -2.3590    11.5620    24.3860 n2         0 YKI      -0.075000
     31 C6           7.3310    14.4050    26.0300 ca         0 YKI      -0.020000
     32 C7           4.4750    14.5760    25.6390 ca         0 YKI      -0.086000
     33 C8           5.1590    15.5770    26.3920 ca         0 YKI      -0.135000
     34 C9           6.5780    15.4750    26.5770 ca         0 YKI      -0.091000
     35 C10          2.4440    11.4850    24.0790 c2         0 YKI       0.339000
     36 C11          1.2430    11.0110    24.8590 c3         0 YKI      -0.071000
     37 O            2.4240    11.4800    22.8390 o          0 YKI      -0.355000
     38 C12          1.2920    10.1820    26.0380 c3         0 YKI      -0.167000
     39 C13          0.0470     9.8260    26.6640 c2         0 YKI      -0.050000
     40 C14          4.5710    12.3870    24.2720 c3         0 YKI       0.103000
     41 C15          5.1960    13.4650    25.0650 ca         0 YKI      -0.114000
     42 C16          6.5850    13.3350    25.2300 cp         0 YKI       0.003000
     43 C17          5.8240    11.5170    23.9560 ca         0 YKI      -0.103000
     44 C18          7.0090    12.1050    24.5250 cq         0 YKI      -0.046000
     45 C19          8.2930    11.4330    24.3260 ca         0 YKI      -0.096000
     46 C20          8.3700    10.2140    23.5750 ca         0 YKI      -0.126000
     47 C21          7.1600     9.6370    23.0090 ca         0 YKI      -0.122000
     48 C22          5.8960    10.2880    23.1980 ca         0 YKI      -0.105000
     49 C23         -0.0800    11.4560    24.3250 c2         0 YKI      -0.064000
     50 C24         -1.2240    11.0730    24.9920 c2         0 YKI      -0.005000
     51 C25         -1.9350    12.2990    23.2940 c2         0 YKI      -0.104000
     52 C26         -0.5270    12.2640    23.2210 c2         0 YKI      -0.169000
@<TRIPOS>BOND
     1     1    34 1   
     2     2    33 1   
     3     3    51 1   
     4     4    45 1   
     5     5    32 1   
     6     6    39 1   
     7     7    40 1   
     8     8    21 1   
     9     9    19 1   
    10    10    46 1   
    11    11    38 1   
    12    12    24 1   
    13    13    36 1   
    14    13    38 1   
    15    14    23 1   
    16    15    47 1   
    17    16    48 1   
    18    17    52 1   
    19    18    26 1   
    20    19    20 1   
    21    19    23 1   
    22    20    21 1   
    23    21    29 1   
    24    22    25 1   
    25    22    29 1   
    26    23    27 1   
    27    24    25 1   
    28    24    27 1   
    29    25    31 1   
    30    26    35 1   
    31    26    40 1   
    32    27    29 1   
    33    28    39 1   
    34    28    50 1   
    35    30    50 1   
    36    30    51 1   
    37    31    34 1   
    38    31    42 1   
    39    32    33 1   
    40    32    41 1   
    41    33    34 1   
    42    35    36 1   
    43    35    37 1   
    44    36    38 1   
    45    36    49 1   
    46    38    39 1   
    47    40    41 1   
    48    40    43 1   
    49    41    42 1   
    50    42    44 1   
    51    43    44 1   
    52    43    48 1   
    53    44    45 1   
    54    45    46 1   
    55    46    47 1   
    56    47    48 1   
    57    49    50 1   
    58    49    52 1   
    59    51    52 1   
@<TRIPOS>SUBSTRUCTURE
     1 YKI         1 TEMP              0 ****  ****    0 ROOT
