@<TRIPOS>MOLECULE
C4N
   52    55     1     0     0
SMALL
bcc


@<TRIPOS>ATOM
      1 CL          72.5580    37.2200    25.8040 cl       302 C4N      -0.086400
      2 C1          66.4830    34.2320    23.8740 ca       302 C4N      -0.249600
      3 C2          65.3300    33.8090    24.5770 ca       302 C4N       0.213100
      4 C3          65.4320    33.0840    25.7540 ca       302 C4N      -0.196000
      5 C4          67.7580    33.8860    24.3590 ca       302 C4N       0.005000
      6 O5          64.1100    34.0650    24.0580 oh       302 C4N      -0.504100
      7 C6          66.3690    34.9330    22.5670 c        302 C4N       0.684700
      8 N7          66.7020    36.2510    22.4070 n        302 C4N      -0.468800
      9 O8          66.0400    34.2540    21.6020 o        302 C4N      -0.629100
     10 C9          67.8600    33.2500    25.6050 ca       302 C4N      -0.252900
     11 C10         66.6910    32.8220    26.2960 ca       302 C4N       0.000800
     12 N11         67.1080    32.2380    27.4640 na       302 C4N      -0.018100
     13 N12         68.5010    32.3450    27.5360 nc       302 C4N      -0.517100
     14 C13         68.9900    32.8490    26.4370 cd       302 C4N       0.378900
     15 C14         70.4430    33.2060    26.1920 c3       302 C4N      -0.047400
     16 C15         71.1410    32.5500    25.0300 ca       302 C4N      -0.077300
     17 C16         71.6560    33.3510    24.0050 ca       302 C4N      -0.132000
     18 C17         72.6570    31.4240    22.9560 ca       302 C4N      -0.128000
     19 C18         72.1680    30.6310    23.9960 ca       302 C4N      -0.074300
     20 C19         72.4000    32.7890    22.9590 ca       302 C4N      -0.127000
     21 C20         71.4190    31.1800    25.0420 ca       302 C4N      -0.118000
     22 C21         66.6080    36.8780    21.0850 c3       302 C4N       0.072300
     23 C22         67.0000    37.1620    23.5260 c3       302 C4N       0.135300
     24 C23         68.4120    37.1710    24.0380 ca       302 C4N      -0.106300
     25 C24         68.5760    37.2440    25.4240 ca       302 C4N      -0.121000
     26 C25         70.9590    37.1920    25.1170 ca       302 C4N       0.016400
     27 C26         70.7860    37.1170    23.7310 ca       302 C4N      -0.122500
     28 C27         69.8530    37.2520    25.9670 ca       302 C4N      -0.122500
     29 C28         69.5100    37.1060    23.1790 ca       302 C4N      -0.121000
     30 C30         72.4870    29.1710    23.9860 c3       302 C4N      -0.054800
     31 H01         64.5340    32.7210    26.2530 ha       302 C4N       0.163000
     32 H02         68.6520    34.1090    23.7760 ha       302 C4N       0.152000
     33 H03         63.7730    33.2760    23.6260 ho       302 C4N       0.457000
     34 H04         66.5120    31.8050    28.1540 hn       302 C4N       0.319700
     35 H05         70.9680    32.8350    27.0720 hc       302 C4N       0.068200
     36 H06         70.4920    34.2840    26.0350 hc       302 C4N       0.068200
     37 H07         71.4760    34.4260    24.0200 ha       302 C4N       0.129000
     38 H08         73.2360    30.9760    22.1480 ha       302 C4N       0.132000
     39 H09         72.7750    33.4190    22.1530 ha       302 C4N       0.129000
     40 H10         71.0580    30.5490    25.8540 ha       302 C4N       0.141000
     41 H11         66.1640    37.8680    21.1840 h1       302 C4N       0.051033
     42 H12         67.6050    36.9690    20.6540 h1       302 C4N       0.051033
     43 H13         65.9850    36.2640    20.4350 h1       302 C4N       0.051033
     44 H14         66.3990    36.7950    24.3580 h1       302 C4N       0.067200
     45 H15         66.7610    38.1740    23.2000 h1       302 C4N       0.067200
     46 H16         67.7040    37.2940    26.0760 ha       302 C4N       0.143500
     47 H17         71.6580    37.0670    23.0790 ha       302 C4N       0.150500
     48 H18         69.9910    37.3050    27.0470 ha       302 C4N       0.150500
     49 H19         69.3700    37.0480    22.1000 ha       302 C4N       0.143500
     50 H20         73.4350    29.0030    24.4970 hc       302 C4N       0.045033
     51 H21         71.6970    28.6220    24.4990 hc       302 C4N       0.045033
     52 H22         72.5630    28.8220    22.9560 hc       302 C4N       0.045033
@<TRIPOS>BOND
     1     1    26 1   
     2     2     3 ar  
     3     2     5 ar  
     4     2     7 1   
     5     3     4 ar  
     6     3     6 1   
     7     4    11 ar  
     8     4    31 1   
     9     5    10 ar  
    10     5    32 1   
    11     6    33 1   
    12     7     8 1   
    13     7     9 2   
    14     8    22 1   
    15     8    23 1   
    16    10    11 ar  
    17    10    14 1   
    18    11    12 1   
    19    12    13 1   
    20    12    34 1   
    21    13    14 2   
    22    14    15 1   
    23    15    16 1   
    24    15    35 1   
    25    15    36 1   
    26    16    17 ar  
    27    16    21 ar  
    28    17    20 ar  
    29    17    37 1   
    30    18    19 ar  
    31    18    20 ar  
    32    18    38 1   
    33    19    21 ar  
    34    19    30 1   
    35    20    39 1   
    36    21    40 1   
    37    22    41 1   
    38    22    42 1   
    39    22    43 1   
    40    23    24 1   
    41    23    44 1   
    42    23    45 1   
    43    24    25 ar  
    44    24    29 ar  
    45    25    28 ar  
    46    25    46 1   
    47    26    27 ar  
    48    26    28 ar  
    49    27    29 ar  
    50    27    47 1   
    51    28    48 1   
    52    29    49 1   
    53    30    50 1   
    54    30    51 1   
    55    30    52 1   
@<TRIPOS>SUBSTRUCTURE
     1 C4N         1 TEMP              0 ****  ****    0 ROOT
