@<TRIPOS>MOLECULE
C4N
   52    55     1     0     0
SMALL
bcc


@<TRIPOS>ATOM
      1 H19         66.5120    31.8050    28.1540 hn         0 C4N       0.319700
      2 H20         73.2360    30.9760    22.1480 ha         0 C4N       0.132000
      3 H17         72.5630    28.8220    22.9560 hc         0 C4N       0.045033
      4 H21         71.6580    37.0670    23.0790 ha         0 C4N       0.150500
      5 H22         69.3700    37.0480    22.1000 ha         0 C4N       0.143500
      6 H18         68.6520    34.1090    23.7760 ha         0 C4N       0.152000
      7 H03         70.9680    32.8350    27.0720 hc         0 C4N       0.068200
      8 H02         63.7730    33.2760    23.6260 ho         0 C4N       0.457000
      9 H09         67.6050    36.9690    20.6540 h1         0 C4N       0.051033
     10 H01         64.5340    32.7210    26.2530 ha         0 C4N       0.163000
     11 H07         71.0580    30.5490    25.8540 ha         0 C4N       0.141000
     12 H06         72.7750    33.4190    22.1530 ha         0 C4N       0.129000
     13 H05         71.4760    34.4260    24.0200 ha         0 C4N       0.129000
     14 H08         66.1640    37.8680    21.1840 h1         0 C4N       0.051033
     15 H12         66.3500    36.8880    24.3570 h1         0 C4N       0.067200
     16 H11         66.8360    38.1630    23.1280 h1         0 C4N       0.067200
     17 H10         65.9850    36.2640    20.4350 h1         0 C4N       0.051033
     18 H13         67.7040    37.2940    26.0760 ha         0 C4N       0.143500
     19 H16         71.6970    28.6220    24.4990 hc         0 C4N       0.045033
     20 H15         73.4350    29.0030    24.4970 hc         0 C4N       0.045033
     21 H14         69.9910    37.3050    27.0470 ha         0 C4N       0.150500
     22 H04         70.4920    34.2840    26.0350 hc         0 C4N       0.068200
     23 C           66.4830    34.2320    23.8740 ca         0 C4N      -0.249600
     24 C1          65.3300    33.8090    24.5770 ca         0 C4N       0.213100
     25 C2          65.4320    33.0840    25.7540 ca         0 C4N      -0.196000
     26 O           64.1100    34.0650    24.0580 oh         0 C4N      -0.504100
     27 C3          67.8600    33.2500    25.6050 ca         0 C4N      -0.252900
     28 C4          66.6910    32.8220    26.2960 ca         0 C4N       0.000800
     29 C5          68.9900    32.8490    26.4370 cc         0 C4N       0.378900
     30 C6          70.4430    33.2060    26.1920 c3         0 C4N      -0.047400
     31 C7          71.1410    32.5500    25.0300 ca         0 C4N      -0.077300
     32 C8          71.6560    33.3510    24.0050 ca         0 C4N      -0.132000
     33 C9          72.4000    32.7890    22.9590 ca         0 C4N      -0.127000
     34 C10         71.4190    31.1800    25.0420 ca         0 C4N      -0.118000
     35 C11         66.6080    36.8780    21.0850 c3         0 C4N       0.072300
     36 C12         67.0000    37.1620    23.5260 c3         0 C4N       0.135300
     37 C13         68.5760    37.2440    25.4240 ca         0 C4N      -0.121000
     38 C14         69.8530    37.2520    25.9670 ca         0 C4N      -0.122500
     39 C15         72.4870    29.1710    23.9860 c3         0 C4N      -0.054800
     40 C16         67.7580    33.8860    24.3590 ca         0 C4N       0.005000
     41 C17         66.3690    34.9330    22.5670 c          0 C4N       0.684700
     42 N           66.7020    36.2510    22.4070 n          0 C4N      -0.468800
     43 O1          66.0400    34.2540    21.6020 o          0 C4N      -0.629100
     44 N1          67.1080    32.2380    27.4640 na         0 C4N      -0.018100
     45 N2          68.5010    32.3450    27.5360 nd         0 C4N      -0.517100
     46 C18         72.6570    31.4240    22.9560 ca         0 C4N      -0.128000
     47 C19         72.1680    30.6310    23.9960 ca         0 C4N      -0.074300
     48 C20         68.4120    37.1710    24.0380 ca         0 C4N      -0.106300
     49 C21         70.9590    37.1920    25.1170 ca         0 C4N       0.016400
     50 C22         70.7860    37.1170    23.7310 ca         0 C4N      -0.122500
     51 C23         69.5100    37.1060    23.1790 ca         0 C4N      -0.121000
     52 Cl          72.5580    37.2200    25.8040 cl         0 C4N      -0.086400
@<TRIPOS>BOND
     1     1    44 1   
     2     2    46 1   
     3     3    39 1   
     4     4    50 1   
     5     5    51 1   
     6     6    40 1   
     7     7    30 1   
     8     8    26 1   
     9     9    35 1   
    10    10    25 1   
    11    11    34 1   
    12    12    33 1   
    13    13    32 1   
    14    14    35 1   
    15    15    36 1   
    16    16    36 1   
    17    17    35 1   
    18    18    37 1   
    19    19    39 1   
    20    20    39 1   
    21    21    38 1   
    22    22    30 1   
    23    23    24 ar  
    24    23    40 ar  
    25    23    41 1   
    26    24    25 ar  
    27    24    26 1   
    28    25    28 ar  
    29    27    28 ar  
    30    27    29 1   
    31    27    40 ar  
    32    28    44 1   
    33    29    30 1   
    34    29    45 2   
    35    30    31 1   
    36    31    32 ar  
    37    31    34 ar  
    38    32    33 ar  
    39    33    46 ar  
    40    34    47 ar  
    41    35    42 1   
    42    36    42 1   
    43    36    48 1   
    44    37    38 ar  
    45    37    48 ar  
    46    38    49 ar  
    47    39    47 1   
    48    41    42 1   
    49    41    43 2   
    50    44    45 1   
    51    46    47 ar  
    52    48    51 ar  
    53    49    50 ar  
    54    49    52 1   
    55    50    51 ar  
@<TRIPOS>SUBSTRUCTURE
     1 C4N         1 TEMP              0 ****  ****    0 ROOT
