@<TRIPOS>MOLECULE
B5Q
   56    60     1     0     0
SMALL
bcc


@<TRIPOS>ATOM
      1 H19        -32.0310   -14.0030   -24.1370 h1         0 B5Q       0.067950
      2 H23        -33.3190    -6.3980   -28.9460 h1         0 B5Q       0.037700
      3 H10        -30.2140    -5.5110   -29.9200 ha         0 B5Q       0.132000
      4 H24        -32.0540    -5.1290   -28.7630 h1         0 B5Q       0.037700
      5 H02        -35.7930    -9.9000   -28.3150 ha         0 B5Q       0.136000
      6 H25        -33.2200    -5.5540   -26.7460 hn         0 B5Q       0.366800
      7 H05        -29.5260   -12.4150   -22.6780 h1         0 B5Q       0.067950
      8 H04        -28.9170   -11.5460   -24.0890 h1         0 B5Q       0.067950
      9 H11        -30.5190    -5.5430   -26.9410 h1         0 B5Q       0.030367
     10 H03        -33.9660    -8.8270   -29.5490 ha         0 B5Q       0.139000
     11 H09        -30.3710   -10.4100   -29.1370 ha         0 B5Q       0.134000
     12 H08        -28.4330   -17.1150   -26.0230 ha         0 B5Q       0.132000
     13 H01        -31.1700    -9.7190   -26.3760 ha         0 B5Q       0.180000
     14 H07        -26.5730   -15.9510   -24.8600 ha         0 B5Q       0.132000
     15 H14        -32.9900   -10.2920   -23.9870 h1         0 B5Q       0.103700
     16 H13        -30.9160    -6.8520   -25.8020 h1         0 B5Q       0.030367
     17 H12        -31.4910    -5.1960   -25.4920 h1         0 B5Q       0.030367
     18 H15        -36.4300   -11.1530   -26.3370 hn         0 B5Q       0.430800
     19 H18        -31.8110   -13.3790   -25.7740 h1         0 B5Q       0.067950
     20 H17        -36.1660   -12.6800   -23.2000 hn         0 B5Q       0.398300
     21 H16        -37.2310   -12.2700   -24.5250 hn         0 B5Q       0.398300
     22 H06        -26.9400   -13.7490   -23.8020 ha         0 B5Q       0.137000
     23 H22        -28.4290    -6.9730   -30.8250 ha         0 B5Q       0.131000
     24 H21        -28.4780    -9.4170   -30.3820 ha         0 B5Q       0.132000
     25 H20        -30.6930   -16.0970   -26.0550 ha         0 B5Q       0.137000
     26 C          -33.2090   -10.4220   -26.0720 ca         0 B5Q      -0.164300
     27 C1         -31.6450   -11.0580   -24.1990 c          0 B5Q       0.671100
     28 O          -31.1620   -10.0410   -23.7220 o          0 B5Q      -0.605100
     29 C2         -32.1770    -9.7700   -26.7890 ca         0 B5Q      -0.064000
     30 C3         -34.7890    -9.8760   -27.8910 ca         0 B5Q      -0.181000
     31 C4         -32.4580    -9.1940   -28.0270 cp         0 B5Q      -0.067000
     32 C5         -33.7690    -9.2660   -28.5710 ca         0 B5Q      -0.086000
     33 C6         -35.2630   -11.6390   -24.7570 c2         0 B5Q       0.755100
     34 C7         -31.3660    -8.5220   -28.7860 cp         0 B5Q      -0.023000
     35 C8         -29.5420   -12.3790   -23.7670 c3         0 B5Q       0.132300
     36 C9         -29.0240   -13.6850   -24.3360 ca         0 B5Q      -0.103300
     37 C10        -27.7640   -14.2620   -24.2980 ca         0 B5Q      -0.108500
     38 C11        -27.5610   -15.4920   -24.8940 ca         0 B5Q      -0.128500
     39 C12        -28.6080   -16.1540   -25.5390 ca         0 B5Q      -0.128500
     40 C13        -30.3380    -9.3330   -29.2990 ca         0 B5Q      -0.122000
     41 C14        -30.2570    -6.5860   -29.7450 ca         0 B5Q      -0.128000
     42 C15        -31.2790    -5.9340   -26.2650 c3         0 B5Q       0.150100
     43 N          -30.9210   -12.2040   -24.2440 n          0 B5Q      -0.450800
     44 C16        -33.0080   -11.0250   -24.7940 c3         0 B5Q       0.132800
     45 C17        -34.5320   -10.4750   -26.6340 ca         0 B5Q       0.144600
     46 N1         -34.0470   -11.6230   -24.2000 n2         0 B5Q      -0.678900
     47 N2         -35.5010   -11.0970   -25.9440 nh         0 B5Q      -0.719600
     48 N3         -36.3140   -12.2510   -24.1020 nh         0 B5Q      -0.873800
     49 C18        -31.3260   -13.5120   -24.8070 c3         0 B5Q       0.132300
     50 C19        -30.0810   -14.3520   -24.9510 ca         0 B5Q      -0.103300
     51 C20        -29.8690   -15.5830   -25.5610 ca         0 B5Q      -0.108500
     52 C21        -29.2800    -8.7790   -30.0100 ca         0 B5Q      -0.131000
     53 C22        -29.2460    -7.4060   -30.2470 ca         0 B5Q      -0.127000
     54 C23        -31.3220    -7.1220   -29.0220 ca         0 B5Q      -0.057300
     55 C24        -32.3600    -6.1410   -28.4960 c3         0 B5Q       0.206100
     56 N4         -32.5140    -6.2200   -27.0260 n3         0 B5Q      -0.825200
@<TRIPOS>BOND
     1     1    49 1   
     2     2    55 1   
     3     3    41 1   
     4     4    55 1   
     5     5    30 1   
     6     6    56 1   
     7     7    35 1   
     8     8    35 1   
     9     9    42 1   
    10    10    32 1   
    11    11    40 1   
    12    12    39 1   
    13    13    29 1   
    14    14    38 1   
    15    15    44 1   
    16    16    42 1   
    17    17    42 1   
    18    18    47 1   
    19    19    49 1   
    20    20    48 1   
    21    21    48 1   
    22    22    37 1   
    23    23    53 1   
    24    24    52 1   
    25    25    51 1   
    26    26    29 ar  
    27    26    44 1   
    28    26    45 ar  
    29    27    28 2   
    30    27    43 1   
    31    27    44 1   
    32    29    31 ar  
    33    30    32 ar  
    34    30    45 ar  
    35    31    32 ar  
    36    31    34 1   
    37    33    46 2   
    38    33    47 1   
    39    33    48 1   
    40    34    40 ar  
    41    34    54 ar  
    42    35    36 1   
    43    35    43 1   
    44    36    37 ar  
    45    36    50 ar  
    46    37    38 ar  
    47    38    39 ar  
    48    39    51 ar  
    49    40    52 ar  
    50    41    53 ar  
    51    41    54 ar  
    52    42    56 1   
    53    43    49 1   
    54    44    46 1   
    55    45    47 1   
    56    49    50 1   
    57    50    51 ar  
    58    52    53 ar  
    59    54    55 1   
    60    55    56 1   
@<TRIPOS>SUBSTRUCTURE
     1 B5Q         1 TEMP              0 ****  ****    0 ROOT
