@<TRIPOS>MOLECULE
B5Q
   52    56     1     0     0
SMALL
bcc


@<TRIPOS>ATOM
      1 C1         -33.2090   -10.4220   -26.0720 ca       301 B5Q      -0.291600
      2 C2         -31.6450   -11.0580   -24.1990 c        301 B5Q       0.588600
      3 N3         -30.9210   -12.2040   -24.2440 n        301 B5Q      -0.211200
      4 O4         -31.1620   -10.0410   -23.7220 o        301 B5Q      -0.505100
      5 C5         -33.0080   -11.0250   -24.7940 ca       301 B5Q       0.459800
      6 C6         -34.5320   -10.4750   -26.6340 ca       301 B5Q       0.463600
      7 C7         -32.1770    -9.7700   -26.7890 ca       301 B5Q      -0.056000
      8 N8         -34.0470   -11.6230   -24.2000 nb       301 B5Q      -0.705000
      9 C9         -34.7890    -9.8760   -27.8910 ca       301 B5Q      -0.196300
     10 N10        -35.5010   -11.0970   -25.9440 nb       301 B5Q      -0.745000
     11 C11        -32.4580    -9.1940   -28.0270 cp       301 B5Q      -0.043000
     12 C12        -33.7690    -9.2660   -28.5710 ca       301 B5Q      -0.083000
     13 C13        -35.2630   -11.6390   -24.7570 ca       301 B5Q       0.869900
     14 N14        -36.3140   -12.2510   -24.1020 nh       301 B5Q      -0.922500
     15 C15        -31.3660    -8.5220   -28.7860 cp       301 B5Q      -0.031000
     16 C16        -29.5420   -12.3790   -23.7670 cc       301 B5Q      -0.108400
     17 C17        -31.3260   -13.5120   -24.8070 cc       301 B5Q      -0.108400
     18 C18        -30.0810   -14.3520   -24.9510 ca       301 B5Q      -0.087000
     19 C19        -29.0240   -13.6850   -24.3360 ca       301 B5Q      -0.087000
     20 C20        -27.7640   -14.2620   -24.2980 ca       301 B5Q      -0.091500
     21 C21        -27.5610   -15.4920   -24.8940 ca       301 B5Q      -0.133500
     22 C22        -28.6080   -16.1540   -25.5390 ca       301 B5Q      -0.133500
     23 C23        -29.8690   -15.5830   -25.5610 ca       301 B5Q      -0.091500
     24 C24        -30.3380    -9.3330   -29.2990 ca       301 B5Q      -0.117000
     25 C25        -29.2800    -8.7790   -30.0100 ca       301 B5Q      -0.130000
     26 C26        -29.2460    -7.4060   -30.2470 ca       301 B5Q      -0.125000
     27 C27        -30.2570    -6.5860   -29.7450 ca       301 B5Q      -0.129000
     28 C28        -31.3220    -7.1220   -29.0220 ca       301 B5Q      -0.058300
     29 C29        -32.3600    -6.1410   -28.4960 c3       301 B5Q       0.207100
     30 N30        -32.5140    -6.2200   -27.0260 n3       301 B5Q      -0.821200
     31 C31        -31.2790    -5.9340   -26.2650 c3       301 B5Q       0.148100
     32 H01        -31.1700    -9.7190   -26.3760 ha       301 B5Q       0.153000
     33 H02        -35.7930    -9.9000   -28.3150 ha       301 B5Q       0.155000
     34 H03        -33.9660    -8.8270   -29.5490 ha       301 B5Q       0.143000
     35 H04        -36.1660   -12.6800   -23.2000 hn       301 B5Q       0.431800
     36 H05        -37.2310   -12.2700   -24.5250 hn       301 B5Q       0.431800
     37 H06        -28.9920   -11.6940   -23.1220 h4       301 B5Q       0.185500
     38 H07        -32.3400   -13.8140   -25.0700 h4       301 B5Q       0.185500
     39 H08        -26.9400   -13.7490   -23.8020 ha       301 B5Q       0.132000
     40 H09        -26.5730   -15.9510   -24.8600 ha       301 B5Q       0.128000
     41 H10        -28.4330   -17.1150   -26.0230 ha       301 B5Q       0.128000
     42 H11        -30.6930   -16.0970   -26.0550 ha       301 B5Q       0.132000
     43 H12        -30.3710   -10.4100   -29.1370 ha       301 B5Q       0.138000
     44 H13        -28.4780    -9.4170   -30.3820 ha       301 B5Q       0.135000
     45 H14        -28.4290    -6.9730   -30.8250 ha       301 B5Q       0.133000
     46 H15        -30.2140    -5.5110   -29.9200 ha       301 B5Q       0.132000
     47 H16        -33.3190    -6.3980   -28.9460 h1       301 B5Q       0.035700
     48 H17        -32.0540    -5.1290   -28.7630 h1       301 B5Q       0.035700
     49 H18        -33.2200    -5.5540   -26.7460 hn       301 B5Q       0.364800
     50 H19        -30.5190    -5.5430   -26.9410 h1       301 B5Q       0.030700
     51 H20        -31.4910    -5.1960   -25.4920 h1       301 B5Q       0.030700
     52 H21        -30.9160    -6.8520   -25.8020 h1       301 B5Q       0.030700
@<TRIPOS>BOND
     1     1     5 ar  
     2     1     6 ar  
     3     1     7 ar  
     4     2     3 1   
     5     2     4 2   
     6     2     5 1   
     7     3    16 1   
     8     3    17 1   
     9     5     8 ar  
    10     6     9 ar  
    11     6    10 ar  
    12     7    11 ar  
    13     7    32 1   
    14     8    13 ar  
    15     9    12 ar  
    16     9    33 1   
    17    10    13 ar  
    18    11    12 ar  
    19    11    15 1   
    20    12    34 1   
    21    13    14 1   
    22    14    35 1   
    23    14    36 1   
    24    15    24 ar  
    25    15    28 ar  
    26    16    19 2   
    27    16    37 1   
    28    17    18 2   
    29    17    38 1   
    30    18    19 ar  
    31    18    23 ar  
    32    19    20 ar  
    33    20    21 ar  
    34    20    39 1   
    35    21    22 ar  
    36    21    40 1   
    37    22    23 ar  
    38    22    41 1   
    39    23    42 1   
    40    24    25 ar  
    41    24    43 1   
    42    25    26 ar  
    43    25    44 1   
    44    26    27 ar  
    45    26    45 1   
    46    27    28 ar  
    47    27    46 1   
    48    28    29 1   
    49    29    30 1   
    50    29    47 1   
    51    29    48 1   
    52    30    31 1   
    53    30    49 1   
    54    31    50 1   
    55    31    51 1   
    56    31    52 1   
@<TRIPOS>SUBSTRUCTURE
     1 B5Q         1 TEMP              0 ****  ****    0 ROOT
