@<TRIPOS>MOLECULE
BAW
   40    42     1     0     0
SMALL
bcc


@<TRIPOS>ATOM
      1 C1          64.6630    32.3490    27.3720 ca       301 BAW       0.177100
      2 C2          63.4360    32.8660    26.9730 ca       301 BAW      -0.198000
      3 C3          63.3540    33.6990    25.8680 ca       301 BAW       0.183100
      4 C4          64.5090    34.0590    25.1720 ca       301 BAW      -0.157000
      5 C5          65.7490    33.5380    25.5580 ca       301 BAW      -0.026000
      6 C6          65.8160    32.6440    26.6370 ca       301 BAW      -0.197300
      7 O7          64.6760    31.5310    28.4570 oh       301 BAW      -0.494100
      8 O8          62.1370    34.1810    25.5060 oh       301 BAW      -0.494100
      9 C9          67.1640    32.0540    26.9330 c3       301 BAW      -0.034100
     10 C10         67.3100    30.7270    26.1510 c3       301 BAW      -0.098100
     11 C11         64.4110    34.9630    24.0150 cc       301 BAW      -0.050300
     12 N12         63.6340    34.7630    22.9810 na       301 BAW      -0.008600
     13 N13         63.7840    35.8550    22.1010 nc       301 BAW      -0.510800
     14 C14         64.6980    36.7090    22.6170 cd       301 BAW       0.331600
     15 C15         65.0490    36.2330    23.8650 cd       301 BAW      -0.197300
     16 C16         65.9750    36.8450    24.8660 ca       301 BAW      -0.030000
     17 C17         67.3270    37.0050    24.5390 ca       301 BAW       0.135900
     18 C18         68.2090    37.5980    25.4550 ca       301 BAW      -0.169000
     19 C19         67.7630    37.9930    26.7150 ca       301 BAW      -0.105000
     20 C20         66.4180    37.8480    27.0410 ca       301 BAW      -0.143000
     21 C21         65.5240    37.2790    26.1230 ca       301 BAW      -0.096000
     22 C23         65.0800    38.0270    21.9790 c3       301 BAW      -0.126400
     23 F22         67.7260    36.6450    23.2960 f        301 BAW      -0.137900
     24 H01         62.5340    32.6150    27.5320 ha       301 BAW       0.171000
     25 H02         66.6550    33.8240    25.0250 ha       301 BAW       0.145000
     26 H03         65.5580    31.1700    28.5760 ho       301 BAW       0.427000
     27 H04         61.8170    33.7000    24.7400 ho       301 BAW       0.433000
     28 H05         67.2590    31.8660    28.0020 hc       301 BAW       0.049200
     29 H06         67.9450    32.7490    26.6250 hc       301 BAW       0.049200
     30 H07         68.3310    30.3570    26.2510 hc       301 BAW       0.038367
     31 H08         66.6160    29.9890    26.5540 hc       301 BAW       0.038367
     32 H09         67.0880    30.8990    25.0980 hc       301 BAW       0.038367
     33 H10         63.0310    33.9650    22.8380 hn       301 BAW       0.326700
     34 H11         69.2520    37.7510    25.1790 ha       301 BAW       0.148000
     35 H12         68.4620    38.4120    27.4390 ha       301 BAW       0.137000
     36 H13         66.0580    38.1790    28.0150 ha       301 BAW       0.139000
     37 H14         64.4720    37.1730    26.3870 ha       301 BAW       0.139000
     38 H15         66.0760    37.9440    21.5430 hc       301 BAW       0.055033
     39 H16         64.3620    38.2750    21.1970 hc       301 BAW       0.055033
     40 H17         65.0790    38.8110    22.7360 hc       301 BAW       0.055033
@<TRIPOS>BOND
     1     1     2 ar  
     2     1     6 ar  
     3     1     7 1   
     4     2     3 ar  
     5     2    24 1   
     6     3     4 ar  
     7     3     8 1   
     8     4     5 ar  
     9     4    11 1   
    10     5     6 ar  
    11     5    25 1   
    12     6     9 1   
    13     7    26 1   
    14     8    27 1   
    15     9    10 1   
    16     9    28 1   
    17     9    29 1   
    18    10    30 1   
    19    10    31 1   
    20    10    32 1   
    21    11    12 1   
    22    11    15 2   
    23    12    13 1   
    24    12    33 1   
    25    13    14 2   
    26    14    15 1   
    27    14    22 1   
    28    15    16 1   
    29    16    17 ar  
    30    16    21 ar  
    31    17    18 ar  
    32    17    23 1   
    33    18    19 ar  
    34    18    34 1   
    35    19    20 ar  
    36    19    35 1   
    37    20    21 ar  
    38    20    36 1   
    39    21    37 1   
    40    22    38 1   
    41    22    39 1   
    42    22    40 1   
@<TRIPOS>SUBSTRUCTURE
     1 BAW         1 TEMP              0 ****  ****    0 ROOT
