REMARK  Name = /web/media/ligands/5OCI_ligand.pdb
REMARK  5 active torsions:
REMARK  status: ('A' for Active; 'I' for Inactive)
REMARK    1  A    between atoms: C_1  and  C_23
REMARK    2  A    between atoms: C_7  and  C_8
REMARK    3  A    between atoms: C_8  and  C_9
REMARK    4  A    between atoms: N_17  and  C_30
REMARK    5  A    between atoms: C_29  and  N_32
REMARK                            x       y       z     vdW  Elec       q    Type
REMARK                         _______ _______ _______ _____ _____    ______ ____
ROOT
ATOM      1  C   UNL     1      66.684  34.193  23.699  0.00  0.00    +0.093 A 
ATOM      2  C   UNL     1      65.513  33.856  24.430  0.00  0.00    +0.202 A 
ATOM      3  O   UNL     1      64.310  34.205  23.920  0.00  0.00    -0.286 OA
ATOM      4  C   UNL     1      65.576  33.210  25.646  0.00  0.00    +0.063 A 
ATOM      5  C   UNL     1      66.843  32.943  26.186  0.00  0.00    +0.107 A 
ATOM      6  N   UNL     1      67.230  32.435  27.393  0.00  0.00    -0.148 NA
ATOM      7  N   UNL     1      68.624  32.446  27.461  0.00  0.00    -0.152 NA
ATOM      8  C   UNL     1      69.123  32.934  26.362  0.00  0.00    +0.086 A 
ATOM      9  C   UNL     1      68.022  33.302  25.477  0.00  0.00    +0.035 A 
ATOM     10  C   UNL     1      67.954  33.879  24.206  0.00  0.00    +0.011 A 
ENDROOT
BRANCH   1  11
ATOM     11  C   UNL     1      66.539  34.876  22.391  0.00  0.00    +0.256 C 
ATOM     12  N   UNL     1      67.131  36.084  22.191  0.00  0.00    -0.253 N 
ATOM     13  C   UNL     1      66.945  36.740  20.889  0.00  0.00    +0.120 C 
ATOM     14  O   UNL     1      65.833  34.338  21.541  0.00  0.00    -0.269 OA
BRANCH  12  15
ATOM     15  C   UNL     1      67.965  36.725  23.143  0.00  0.00    +0.054 A 
ATOM     16  C   UNL     1      67.453  37.251  24.342  0.00  0.00    +0.016 A 
ATOM     17  C   UNL     1      68.273  37.913  25.254  0.00  0.00    +0.016 A 
ATOM     18  C   UNL     1      69.650  37.999  25.009  0.00  0.00    +0.048 A 
ATOM     19  C   UNL     1      70.148  37.515  23.783  0.00  0.00    +0.016 A 
ATOM     20  C   UNL     1      69.342  36.851  22.868  0.00  0.00    +0.016 A 
BRANCH  18  21
ATOM     21  N   UNL     1      70.518  38.687  25.920  0.00  0.00    -0.303 N 
ATOM     22  C   UNL     1      69.910  39.029  27.235  0.00  0.00    +0.123 C 
ATOM     23  C   UNL     1      70.836  39.942  28.058  0.00  0.00    +0.164 C 
ATOM     24  O   UNL     1      72.145  39.359  28.053  0.00  0.00    -0.350 OA
ATOM     25  C   UNL     1      72.747  39.154  26.760  0.00  0.00    +0.164 C 
ATOM     26  C   UNL     1      71.879  38.117  26.021  0.00  0.00    +0.123 C 
ENDBRANCH  18  21
ENDBRANCH  12  15
ENDBRANCH   1  11
BRANCH   8  27
ATOM     27  C   UNL     1      70.596  33.214  26.143  0.00  0.00    +0.074 C 
BRANCH  27  28
ATOM     28  C   UNL     1      71.256  32.552  24.963  0.00  0.00    -0.016 A 
ATOM     29  C   UNL     1      71.663  33.344  23.887  0.00  0.00    -0.004 A 
ATOM     30  C   UNL     1      72.373  32.758  22.838  0.00  0.00    -0.001 A 
ATOM     31  C   UNL     1      72.712  31.412  22.880  0.00  0.00    -0.004 A 
ATOM     32  C   UNL     1      72.303  30.638  23.960  0.00  0.00    -0.022 A 
ATOM     33  C   UNL     1      72.657  29.193  24.044  0.00  0.00    +0.031 C 
ATOM     34  C   UNL     1      71.598  31.209  25.022  0.00  0.00    -0.008 A 
ENDBRANCH  27  28
ENDBRANCH   8  27
TORSDOF 5
