@<TRIPOS>MOLECULE
/web/media/ligands/5OCI_ligand.pdb
 34 38 0 0 0
SMALL
GASTEIGER

@<TRIPOS>ATOM
      1 C          66.6840   34.1930   23.6990 C.ar    1  UNL1        0.0929
      2 C          65.5130   33.8560   24.4300 C.ar    1  UNL1        0.2016
      3 C          65.5760   33.2100   25.6460 C.ar    1  UNL1        0.0631
      4 O          64.3100   34.2050   23.9200 O.3     1  UNL1       -0.2864
      5 C          68.0220   33.3020   25.4770 C.ar    1  UNL1        0.0354
      6 C          66.8430   32.9430   26.1860 C.ar    1  UNL1        0.1072
      7 C          69.1230   32.9340   26.3620 C.ar    1  UNL1        0.0864
      8 C          70.5960   33.2140   26.1430 C.3     1  UNL1        0.0739
      9 C          71.2560   32.5520   24.9630 C.ar    1  UNL1       -0.0165
     10 C          71.6630   33.3440   23.8870 C.ar    1  UNL1       -0.0039
     11 C          72.7120   31.4120   22.8800 C.ar    1  UNL1       -0.0043
     12 C          71.5980   31.2090   25.0220 C.ar    1  UNL1       -0.0081
     13 C          72.6570   29.1930   24.0440 C.3     1  UNL1        0.0310
     14 C          68.2730   37.9130   25.2540 C.ar    1  UNL1        0.0158
     15 C          67.4530   37.2510   24.3420 C.ar    1  UNL1        0.0162
     16 C          69.3420   36.8510   22.8680 C.ar    1  UNL1        0.0162
     17 N          70.5180   38.6870   25.9200 N.pl3   1  UNL1       -0.3028
     18 C          69.9100   39.0290   27.2350 C.3     1  UNL1        0.1231
     19 C          70.8360   39.9420   28.0580 C.3     1  UNL1        0.1636
     20 C          72.7470   39.1540   26.7600 C.3     1  UNL1        0.1636
     21 C          71.8790   38.1170   26.0210 C.3     1  UNL1        0.1231
     22 C          67.9540   33.8790   24.2060 C.ar    1  UNL1        0.0105
     23 C          66.5390   34.8760   22.3910 C.2     1  UNL1        0.2559
     24 O          65.8330   34.3380   21.5410 O.2     1  UNL1       -0.2695
     25 N          67.2300   32.4350   27.3930 N.ar    1  UNL1       -0.1482
     26 N          68.6240   32.4460   27.4610 N.ar    1  UNL1       -0.1520
     27 C          72.3030   30.6380   23.9600 C.ar    1  UNL1       -0.0222
     28 C          72.3730   32.7580   22.8380 C.ar    1  UNL1       -0.0006
     29 C          67.9650   36.7250   23.1430 C.ar    1  UNL1        0.0542
     30 C          69.6500   37.9990   25.0090 C.ar    1  UNL1        0.0481
     31 C          70.1480   37.5150   23.7830 C.ar    1  UNL1        0.0158
     32 N          67.1310   36.0840   22.1910 N.am    1  UNL1       -0.2533
     33 C          66.9450   36.7400   20.8890 C.3     1  UNL1        0.1203
     34 O          72.1450   39.3590   28.0530 O.3     1  UNL1       -0.3501
@<TRIPOS>BOND
     1     1    22   ar
     2     1     2   ar
     3     2     3   ar
     4     3     6   ar
     5     4     2    1
     6     5     6   ar
     7     5     7   ar
     8     6    25   ar
     9     7    26   ar
    10     8     7    1
    11     9    12   ar
    12     9     8    1
    13    10     9   ar
    14    11    27   ar
    15    15    14   ar
    16    16    29   ar
    17    16    31   ar
    18    17    21    1
    19    17    18    1
    20    18    19    1
    21    20    34    1
    22    21    20    1
    23    22     5   ar
    24    23     1    1
    25    24    23    2
    26    25    26   ar
    27    27    13    1
    28    27    12   ar
    29    28    11   ar
    30    28    10   ar
    31    29    15   ar
    32    30    14   ar
    33    30    17    1
    34    31    30   ar
    35    32    23   am
    36    32    29    1
    37    33    32    1
    38    34    19    1
