@<TRIPOS>MOLECULE
2GJ
   65    68     1     0     0
SMALL
bcc


@<TRIPOS>ATOM
      1 H08         34.9620     4.4420    24.6740 h1         0 2GJ       0.043200
      2 H01         36.3400     5.6630    21.2000 h1         0 2GJ       0.043200
      3 H16         31.0080     5.7570    31.2270 h1         0 2GJ       0.062200
      4 H06         35.3560     2.4490    23.4150 h1         0 2GJ       0.054450
      5 H05         36.8950     2.8220    24.2350 h1         0 2GJ       0.054450
      6 H04         35.1400     2.8740    21.0460 h1         0 2GJ       0.054450
      7 H02         34.6930     5.2150    20.6100 h1         0 2GJ       0.043200
      8 H15         30.7980     8.1410    30.1800 hn         0 2GJ       0.319500
      9 H14         33.8630     8.8370    26.8740 ha         0 2GJ       0.141000
     10 H09         35.0470     7.1570    21.9950 h1         0 2GJ       0.041200
     11 H12         30.7110     7.4500    24.2280 ha         0 2GJ       0.141000
     12 H11         32.4320     6.5500    22.6630 ha         0 2GJ       0.143000
     13 H22         33.5860    11.9070    21.9020 hc         0 2GJ       0.072700
     14 H10         36.1340     6.7950    23.3820 h1         0 2GJ       0.041200
     15 H07         36.5140     5.1630    24.1110 h1         0 2GJ       0.043200
     16 H03         36.5150     3.4990    20.1280 h1         0 2GJ       0.054450
     17 H31         27.7870    11.2060    25.1520 ho         0 2GJ       0.443000
     18 H18         33.8620     5.8420    31.1540 hc         0 2GJ       0.042700
     19 H21         32.5640    10.5890    25.1490 ha         0 2GJ       0.152000
     20 H20         33.2750     5.9140    29.4750 hc         0 2GJ       0.042700
     21 H19         32.7780     4.5730    30.5360 hc         0 2GJ       0.042700
     22 H30         28.7570    11.8680    22.2880 ha         0 2GJ       0.158000
     23 H25         34.0210    13.1810    24.6030 hc         0 2GJ       0.036033
     24 H24         32.4260    13.5970    23.9320 hc         0 2GJ       0.036033
     25 H23         33.9050    14.0070    23.0310 hc         0 2GJ       0.036033
     26 H26         35.3330    11.5170    23.8150 hc         0 2GJ       0.036033
     27 H29         30.9680    13.4730    21.4550 ho         0 2GJ       0.427000
     28 H28         34.7490    10.2540    22.7060 hc         0 2GJ       0.036033
     29 H27         34.0670    10.3840    24.3450 hc         0 2GJ       0.036033
     30 H13         35.5780     7.9390    25.3030 ha         0 2GJ       0.143000
     31 H17         32.0910     7.0580    31.8140 h1         0 2GJ       0.062200
     32 C           35.4870     4.9960    21.3240 c3         0 2GJ       0.129300
     33 C1          35.9860     3.5600    21.0790 c3         0 2GJ       0.126900
     34 O           36.8710     3.2020    22.1750 os         0 2GJ      -0.416600
     35 C2          36.1890     3.1500    23.4720 c3         0 2GJ       0.126900
     36 C3          35.6590     4.5420    23.8420 c3         0 2GJ       0.129300
     37 N           34.9570     5.2020    22.7050 n3         0 2GJ      -0.724600
     38 C4          35.1460     6.6380    22.9490 c3         0 2GJ       0.213100
     39 C5          34.0970     7.1990    23.8990 ca         0 2GJ      -0.075300
     40 C6          32.7330     7.0520    23.5820 ca         0 2GJ      -0.123500
     41 C7          31.7720     7.5550    24.4550 ca         0 2GJ      -0.104000
     42 C8          34.5160     7.8380    25.0770 ca         0 2GJ      -0.123500
     43 C9          33.5580     8.3410    25.9530 ca         0 2GJ      -0.104000
     44 C10         32.1880     8.2030    25.6380 ca         0 2GJ      -0.029000
     45 C11         31.1920     8.7610    26.4740 cc         0 2GJ      -0.228600
     46 C12         30.8160     8.3590    27.7390 cc         0 2GJ       0.286800
     47 C13         31.4670     7.2140    28.5180 c          0 2GJ       0.598600
     48 O1          32.0850     6.3470    27.8920 o          0 2GJ      -0.581100
     49 N1          31.3180     7.3320    29.8730 n          0 2GJ      -0.559900
     50 C14         31.8070     6.4480    30.9560 c3         0 2GJ       0.087000
     51 C15         33.0170     5.6360    30.4970 c3         0 2GJ      -0.118100
     52 N2          29.8220     9.1600    28.1590 nd         0 2GJ      -0.335300
     53 O2          29.5230    10.1560    27.1500 os         0 2GJ      -0.137100
     54 C16         30.3810     9.8760    26.1290 cd         0 2GJ       0.346200
     55 C17         30.4470    10.5530    24.9090 ca         0 2GJ      -0.268500
     56 C18         31.7250    10.8640    24.5100 ca         0 2GJ      -0.029000
     57 C19         31.9690    11.5150    23.3220 ca         0 2GJ      -0.134300
     58 C20         33.3810    11.9070    22.9720 c3         0 2GJ      -0.015400
     59 C21         33.4370    13.2730    23.6870 c3         0 2GJ      -0.088100
     60 C22         34.4610    10.9450    23.4980 c3         0 2GJ      -0.088100
     61 C23         30.8980    11.8950    22.5190 ca         0 2GJ       0.185100
     62 O3          31.1360    12.5340    21.3480 oh         0 2GJ      -0.490100
     63 C24         29.5950    11.5770    22.9210 ca         0 2GJ      -0.263000
     64 C25         29.3470    10.9020    24.1020 ca         0 2GJ       0.214100
     65 O4          28.0580    10.6360    24.4290 oh         0 2GJ      -0.490100
@<TRIPOS>BOND
     1     1    36 1   
     2     2    32 1   
     3     3    50 1   
     4     4    35 1   
     5     5    35 1   
     6     6    33 1   
     7     7    32 1   
     8     8    49 1   
     9     9    43 1   
    10    10    38 1   
    11    11    41 1   
    12    12    40 1   
    13    13    58 1   
    14    14    38 1   
    15    15    36 1   
    16    16    33 1   
    17    17    65 1   
    18    18    51 1   
    19    19    56 1   
    20    20    51 1   
    21    21    51 1   
    22    22    63 1   
    23    23    59 1   
    24    24    59 1   
    25    25    59 1   
    26    26    60 1   
    27    27    62 1   
    28    28    60 1   
    29    29    60 1   
    30    30    42 1   
    31    31    50 1   
    32    32    33 1   
    33    32    37 1   
    34    33    34 1   
    35    34    35 1   
    36    35    36 1   
    37    36    37 1   
    38    37    38 1   
    39    38    39 1   
    40    39    40 ar  
    41    39    42 ar  
    42    40    41 ar  
    43    41    44 ar  
    44    42    43 ar  
    45    43    44 ar  
    46    44    45 1   
    47    45    46 1   
    48    45    54 2   
    49    46    47 1   
    50    46    52 2   
    51    47    48 2   
    52    47    49 1   
    53    49    50 1   
    54    50    51 1   
    55    52    53 1   
    56    53    54 1   
    57    54    55 1   
    58    55    56 ar  
    59    55    64 ar  
    60    56    57 ar  
    61    57    58 1   
    62    57    61 ar  
    63    58    59 1   
    64    58    60 1   
    65    61    62 1   
    66    61    63 ar  
    67    63    64 ar  
    68    64    65 1   
@<TRIPOS>SUBSTRUCTURE
     1 2GJ         1 TEMP              0 ****  ****    0 ROOT
