@<TRIPOS>MOLECULE
2GJ
   65    68     1     0     0
SMALL
bcc


@<TRIPOS>ATOM
      1 N1          29.8220     9.1600    28.1590 nc      1225 2GJ      -0.335300
      2 C2          30.8160     8.3590    27.7390 cd      1225 2GJ       0.286800
      3 C3          31.1920     8.7610    26.4740 cd      1225 2GJ      -0.228600
      4 C4          30.3810     9.8760    26.1290 cc      1225 2GJ       0.346200
      5 O5          29.5230    10.1560    27.1500 os      1225 2GJ      -0.137100
      6 C6          30.4470    10.5530    24.9090 ca      1225 2GJ      -0.268500
      7 C7          32.1880     8.2030    25.6380 ca      1225 2GJ      -0.029000
      8 C8          31.4670     7.2140    28.5180 c       1225 2GJ       0.598600
      9 O9          32.0850     6.3470    27.8920 o       1225 2GJ      -0.581100
     10 N10         31.3180     7.3320    29.8730 n       1225 2GJ      -0.559900
     11 C11         31.8070     6.4480    30.9560 c3      1225 2GJ       0.087000
     12 C12         33.0170     5.6360    30.4970 c3      1225 2GJ      -0.118100
     13 C13         31.7250    10.8640    24.5100 ca      1225 2GJ      -0.029000
     14 C14         31.9690    11.5150    23.3220 ca      1225 2GJ      -0.134300
     15 C15         30.8980    11.8950    22.5190 ca      1225 2GJ       0.185100
     16 C16         29.5950    11.5770    22.9210 ca      1225 2GJ      -0.263000
     17 C17         29.3470    10.9020    24.1020 ca      1225 2GJ       0.214100
     18 C18         33.5580     8.3410    25.9530 ca      1225 2GJ      -0.104000
     19 C19         34.5160     7.8380    25.0770 ca      1225 2GJ      -0.123500
     20 C20         34.0970     7.1990    23.8990 ca      1225 2GJ      -0.075300
     21 C21         32.7330     7.0520    23.5820 ca      1225 2GJ      -0.123500
     22 C22         31.7720     7.5550    24.4550 ca      1225 2GJ      -0.104000
     23 C23         35.1460     6.6380    22.9490 c3      1225 2GJ       0.213100
     24 N24         34.9570     5.2020    22.7050 n3      1225 2GJ      -0.724600
     25 C25         35.4870     4.9960    21.3240 c3      1225 2GJ       0.129300
     26 C26         35.9860     3.5600    21.0790 c3      1225 2GJ       0.126900
     27 O27         36.8710     3.2020    22.1750 os      1225 2GJ      -0.416600
     28 C28         36.1890     3.1500    23.4720 c3      1225 2GJ       0.126900
     29 C29         35.6590     4.5420    23.8420 c3      1225 2GJ       0.129300
     30 C30         33.3810    11.9070    22.9720 c3      1225 2GJ      -0.015400
     31 C31         34.4610    10.9450    23.4980 c3      1225 2GJ      -0.088100
     32 C32         33.4370    13.2730    23.6870 c3      1225 2GJ      -0.088100
     33 O33         28.0580    10.6360    24.4290 oh      1225 2GJ      -0.490100
     34 O34         31.1360    12.5340    21.3480 oh      1225 2GJ      -0.490100
     35 H01         30.7980     8.1410    30.1800 hn      1225 2GJ       0.319500
     36 H02         31.0080     5.7570    31.2270 h1      1225 2GJ       0.062200
     37 H03         32.0910     7.0580    31.8140 h1      1225 2GJ       0.062200
     38 H04         33.8620     5.8420    31.1540 hc      1225 2GJ       0.042700
     39 H05         32.7780     4.5730    30.5360 hc      1225 2GJ       0.042700
     40 H06         33.2750     5.9140    29.4750 hc      1225 2GJ       0.042700
     41 H07         32.5640    10.5890    25.1490 ha      1225 2GJ       0.152000
     42 H08         28.7570    11.8680    22.2880 ha      1225 2GJ       0.158000
     43 H09         33.8630     8.8370    26.8740 ha      1225 2GJ       0.141000
     44 H10         35.5780     7.9390    25.3030 ha      1225 2GJ       0.143000
     45 H11         32.4320     6.5500    22.6630 ha      1225 2GJ       0.143000
     46 H12         30.7110     7.4500    24.2280 ha      1225 2GJ       0.141000
     47 H13         36.1240     6.7750    23.4100 h1      1225 2GJ       0.041200
     48 H14         35.0810     7.1680    21.9990 h1      1225 2GJ       0.041200
     49 H15         36.3400     5.6630    21.2000 h1      1225 2GJ       0.043200
     50 H16         34.6930     5.2150    20.6100 h1      1225 2GJ       0.043200
     51 H17         36.5150     3.4990    20.1280 h1      1225 2GJ       0.054450
     52 H18         35.1400     2.8740    21.0460 h1      1225 2GJ       0.054450
     53 H19         36.8950     2.8220    24.2350 h1      1225 2GJ       0.054450
     54 H20         35.3560     2.4490    23.4150 h1      1225 2GJ       0.054450
     55 H21         36.5140     5.1630    24.1110 h1      1225 2GJ       0.043200
     56 H22         34.9620     4.4420    24.6740 h1      1225 2GJ       0.043200
     57 H23         33.5860    11.9070    21.9020 hc      1225 2GJ       0.072700
     58 H24         35.3330    11.5170    23.8150 hc      1225 2GJ       0.036033
     59 H25         34.0670    10.3840    24.3450 hc      1225 2GJ       0.036033
     60 H26         34.7490    10.2540    22.7060 hc      1225 2GJ       0.036033
     61 H27         33.9050    14.0070    23.0310 hc      1225 2GJ       0.036033
     62 H28         32.4260    13.5970    23.9320 hc      1225 2GJ       0.036033
     63 H29         34.0210    13.1810    24.6030 hc      1225 2GJ       0.036033
     64 H30         27.7870    11.2060    25.1520 ho      1225 2GJ       0.443000
     65 H31         30.9680    13.4730    21.4550 ho      1225 2GJ       0.427000
@<TRIPOS>BOND
     1     1     2 2   
     2     1     5 1   
     3     2     3 1   
     4     2     8 1   
     5     3     4 2   
     6     3     7 1   
     7     4     5 1   
     8     4     6 1   
     9     6    13 ar  
    10     6    17 ar  
    11     7    18 ar  
    12     7    22 ar  
    13     8     9 2   
    14     8    10 1   
    15    10    11 1   
    16    10    35 1   
    17    11    12 1   
    18    11    36 1   
    19    11    37 1   
    20    12    38 1   
    21    12    39 1   
    22    12    40 1   
    23    13    14 ar  
    24    13    41 1   
    25    14    15 ar  
    26    14    30 1   
    27    15    16 ar  
    28    15    34 1   
    29    16    17 ar  
    30    16    42 1   
    31    17    33 1   
    32    18    19 ar  
    33    18    43 1   
    34    19    20 ar  
    35    19    44 1   
    36    20    21 ar  
    37    20    23 1   
    38    21    22 ar  
    39    21    45 1   
    40    22    46 1   
    41    23    24 1   
    42    23    47 1   
    43    23    48 1   
    44    24    25 1   
    45    24    29 1   
    46    25    26 1   
    47    25    49 1   
    48    25    50 1   
    49    26    27 1   
    50    26    51 1   
    51    26    52 1   
    52    27    28 1   
    53    28    29 1   
    54    28    53 1   
    55    28    54 1   
    56    29    55 1   
    57    29    56 1   
    58    30    31 1   
    59    30    32 1   
    60    30    57 1   
    61    31    58 1   
    62    31    59 1   
    63    31    60 1   
    64    32    61 1   
    65    32    62 1   
    66    32    63 1   
    67    33    64 1   
    68    34    65 1   
@<TRIPOS>SUBSTRUCTURE
     1 2GJ         1 TEMP              0 ****  ****    0 ROOT
