/web/media/ligands/5J2X_ligand.pdb
 OpenBabel04242009293D

 44 36  0  0  1  0  0  0  0  0999 V2000
    1.5760   12.2310   27.4000 C   0  0  0  0  0  0  0  0  0  0  0  0
    1.3470   12.0060   27.2120 C   0  0  0  0  0  0  0  0  0  0  0  0
    2.8120   11.6940   27.0600 C   0  0  0  0  0  0  0  0  0  0  0  0
    2.5890   11.6620   26.7230 C   0  0  0  0  0  0  0  0  0  0  0  0
    2.8550   10.8410   25.9660 C   0  0  0  0  0  0  0  0  0  0  0  0
    2.6750   10.8240   25.6210 C   0  0  0  0  0  0  0  0  0  0  0  0
    1.7670    9.6080   24.0860 C   0  0  0  0  0  0  0  0  0  0  0  0
    1.5600    9.4740   23.8210 C   0  0  0  0  0  0  0  0  0  0  0  0
    1.5400    7.7970   22.8270 C   0  0  0  0  0  0  0  0  0  0  0  0
    1.2190    7.6310   22.6250 C   0  0  0  0  0  0  0  0  0  0  0  0
    0.2210    7.7610   24.8820 C   0  0  0  0  0  0  0  0  0  0  0  0
    0.0770    7.6590   24.8110 C   0  0  0  0  0  0  0  0  0  0  0  0
   -1.0920    7.4810   24.4630 C   0  0  0  0  0  0  0  0  0  0  0  0
    0.6240    6.7360   25.6900 C   0  0  2  0  0  0  0  0  0  0  0  0
   -2.0010    6.8620   25.3110 C   0  0  0  0  0  0  0  0  0  0  0  0
   -0.1350    6.1470   26.7020 C   0  0  0  0  0  0  0  0  0  0  0  0
    0.6300    7.3640   26.1560 C   0  0  0  0  0  0  0  0  0  0  0  0
   -1.2500    8.0320   25.0180 C   0  0  0  0  0  0  0  0  0  0  0  0
    1.7000   10.5610   25.2060 C   0  0  0  0  0  0  0  0  0  0  0  0
    1.5210   10.4350   24.9330 C   0  0  0  0  0  0  0  0  0  0  0  0
    0.4640   11.0710   25.6060 C   0  0  0  0  0  0  0  0  0  0  0  0
    0.2770   10.8190   25.4200 C   0  0  0  0  0  0  0  0  0  0  0  0
    0.4370   11.9340   26.6760 C   0  0  0  0  0  0  0  0  0  0  0  0
    0.2200   11.6370   26.5160 C   0  0  0  0  0  0  0  0  0  0  0  0
    1.4300   13.0360   28.4720 O   0  0  0  0  0  0  0  0  0  0  0  0
    1.2350   12.7660   28.3370 O   0  0  0  0  0  0  0  0  0  0  0  0
    4.0480   10.3390   25.5800 O   0  0  0  0  0  0  0  0  0  0  0  0
    3.8970   10.5380   25.1390 O   0  0  0  0  0  0  0  0  0  0  0  0
    2.5300    9.7880   23.0460 N   0  0  0  0  0  0  0  0  0  0  0  0
    2.2670    9.6010   22.7320 N   0  0  0  0  0  0  0  0  0  0  0  0
    2.3830    8.6590   22.2360 N   0  0  0  0  0  0  0  0  0  0  0  0
    2.0440    8.4560   21.9600 N   0  0  0  0  0  0  0  0  0  0  0  0
    1.1440    8.3590   23.9900 N   0  0  0  0  0  0  0  0  0  0  0  0
    0.9060    8.2260   23.7960 N   0  0  0  0  0  0  0  0  0  0  0  0
   -1.5750    6.5020   26.5840 C   0  0  0  0  0  0  0  0  0  0  0  0
   -1.4500    6.5520   26.8970 C   0  0  0  0  0  0  0  0  0  0  0  0
   -0.2730    6.7520   27.0130 C   0  0  0  0  0  0  0  0  0  0  0  0
   -2.0140    7.5030   26.0580 C   0  0  0  0  0  0  0  0  0  0  0  0
    1.2110    6.7000   22.4030 O   0  0  0  0  0  0  0  0  0  0  0  0
    0.8390    6.5430   22.2330 O   0  0  0  0  0  0  0  0  0  0  0  0
   -1.5040    7.8230   23.2290 F   0  0  0  0  0  0  0  0  0  0  0  0
    1.8760    6.2920   25.4430 F   0  0  0  0  0  0  0  0  0  0  0  0
   -1.1520   12.8350   27.0950 Br  0  0  0  0  0  0  0  0  0  0  0  0
   -1.4460   12.3770   26.9090 Br  0  0  0  0  0  0  0  0  0  0  0  0
  1 26  2  0  0  0  0
  4  3  2  0  0  0  0
  4  1  1  0  0  0  0
  5  4  1  0  0  0  0
  7 20  2  0  0  0  0
  8 33  2  0  0  0  0
 10  9  1  0  0  0  0
 11 14  1  0  0  0  0
 13 12  1  0  0  0  0
 13 18  1  0  0  0  0
 13 15  1  0  0  0  0
 14 42  1  6  0  0  0
 14 17  1  0  0  0  0
 15 38  1  0  0  0  0
 16 37  1  0  0  0  0
 17 37  1  0  0  0  0
 19  6  2  0  0  0  0
 20 22  1  0  0  0  0
 21 24  2  0  0  0  0
 23  2  2  0  0  0  0
 24 23  1  0  0  0  0
 27  5  1  0  0  0  0
 28 27  1  0  0  0  0
 28  6  1  0  0  0  0
 29  8  1  0  0  0  0
 30 29  1  0  0  0  0
 31 30  2  0  0  0  0
 32 31  1  0  0  0  0
 32  9  1  0  0  0  0
 34 11  1  0  0  0  0
 36 37  1  0  0  0  0
 38 35  1  0  0  0  0
 39 10  1  0  0  0  0
 40 39  1  0  0  0  0
 41 13  1  0  0  0  0
 44 43  1  0  0  0  0
M  END
>  <REMARK>
 800 SITE_DESCRIPTION: binding site for residue 6DL A 301                 

>  <HET>
 6DL  A 301      44                                                       

>  <HETNAM>
     6DL 5-(5-BROMO-2,4-DIHYDROXY-PHENYL)-4-(2-FLUORO-PHENYL)-2,          
   2 6DL  4-DIHYDRO-[1,2,4]TRIAZOL-3-ONE                                  

>  <FORMUL>
   2  6DL    C14 H9 BR F N3 O3                                            

$$$$
