@<TRIPOS>MOLECULE
PU1
   51    53     1     0     0
SMALL
bcc


@<TRIPOS>ATOM
      1 H19          2.3560    37.4200    25.7130 hc         0 PU1       0.069700
      2 H03          5.0800    28.8680    23.1650 h1         0 PU1       0.048700
      3 H20          2.5990    39.1560    25.2550 hc         0 PU1       0.069700
      4 H17          1.9220    38.0940    23.2940 hc         0 PU1       0.069700
      5 H04          8.5430    31.6490    22.2500 h1         0 PU1       0.047367
      6 H18          3.7150    38.1770    23.1470 hc         0 PU1       0.069700
      7 H02          3.9510    29.2320    24.4930 h1         0 PU1       0.048700
      8 H01          5.6980    29.4930    24.7120 h1         0 PU1       0.048700
      9 H08          6.8920    36.0560    26.0280 h1         0 PU1       0.047367
     10 H21          6.4020    38.0030    26.6500 ha         0 PU1       0.164500
     11 H06          7.2490    32.8390    21.9720 h1         0 PU1       0.047367
     12 H05          6.8670    31.1010    22.0050 h1         0 PU1       0.047367
     13 H16          3.8270    35.8170    23.9340 h1         0 PU1       0.075200
     14 H07          8.6150    36.0470    25.5820 h1         0 PU1       0.047367
     15 H11          3.1980    35.5190    26.6220 hc         0 PU1       0.085200
     16 H10          5.3200    35.3710    26.1230 ha         0 PU1       0.151000
     17 H09          8.0540    35.1050    26.9830 h1         0 PU1       0.047367
     18 H12          2.4280    33.9590    27.0670 hc         0 PU1       0.085200
     19 H15          2.8870    36.0010    22.4160 h1         0 PU1       0.075200
     20 H14         -2.1740    33.7860    25.9990 hn         0 PU1       0.451300
     21 H13         -3.5130    34.0020    24.8950 hn         0 PU1       0.451300
     22 Cl           2.2390    31.7810    24.8120 cl         0 PU1      -0.051400
     23 C            3.7780    32.5970    24.8890 ca         0 PU1      -0.004600
     24 C1           4.8990    31.9510    24.3320 ca         0 PU1       0.121100
     25 O            4.7380    30.8560    23.5230 os         0 PU1      -0.325900
     26 C2           4.8740    29.5380    24.0000 c3         0 PU1       0.115700
     27 C3           6.1510    32.5790    24.3590 ca         0 PU1       0.062100
     28 O1           7.2630    31.9610    23.8480 os         0 PU1      -0.327900
     29 C4           7.4940    31.8830    22.4340 c3         0 PU1       0.116700
     30 C5           6.3110    33.7850    25.0450 ca         0 PU1       0.112100
     31 O2           7.5700    34.3150    25.1280 os         0 PU1      -0.316900
     32 C6           7.7960    35.4490    25.9820 c3         0 PU1       0.109700
     33 C7           5.1960    34.4130    25.6190 ca         0 PU1      -0.202000
     34 C8           3.9340    33.8310    25.5540 ca         0 PU1      -0.052300
     35 C9           2.8050    34.5730    26.2490 c3         0 PU1      -0.048400
     36 C10          1.6680    34.8760    25.2980 cc         0 PU1       0.407800
     37 N            0.4500    34.4990    25.5270 nd         0 PU1      -0.530100
     38 C11         -0.3260    34.8510    24.4940 ca         0 PU1      -0.238200
     39 C12         -1.6800    34.6860    24.1920 ca         0 PU1       0.783200
     40 N1          -2.5320    34.1060    25.1110 nh         0 PU1      -0.952500
     41 C13          0.4980    35.5240    23.5860 ca         0 PU1       0.468800
     42 N2          -0.0110    35.9710    22.4590 nb         0 PU1      -0.752000
     43 C14         -1.2610    35.7390    22.1700 ca         0 PU1       0.897200
     44 N3          -2.1110    35.1440    23.0100 nb         0 PU1      -0.812000
     45 N4           1.7500    35.5520    24.1150 na         0 PU1      -0.248000
     46 C15          2.9140    36.2090    23.4860 c3         0 PU1       0.041300
     47 C16          2.8750    37.7330    23.6810 c3         0 PU1      -0.097400
     48 C17          2.9620    38.1330    25.1540 c3         0 PU1      -0.014300
     49 C18          4.3350    38.0650    25.7120 c1         0 PU1      -0.132100
     50 C19          5.4100    38.0330    26.2000 c1         0 PU1      -0.176500
     51 F           -1.6560    36.1950    20.9810 f          0 PU1      -0.199200
@<TRIPOS>BOND
     1     1    48 1   
     2     2    26 1   
     3     3    48 1   
     4     4    47 1   
     5     5    29 1   
     6     6    47 1   
     7     7    26 1   
     8     8    26 1   
     9     9    32 1   
    10    10    50 1   
    11    11    29 1   
    12    12    29 1   
    13    13    46 1   
    14    14    32 1   
    15    15    35 1   
    16    16    33 1   
    17    17    32 1   
    18    18    35 1   
    19    19    46 1   
    20    20    40 1   
    21    21    40 1   
    22    22    23 1   
    23    23    24 ar  
    24    23    34 ar  
    25    24    25 1   
    26    24    27 ar  
    27    25    26 1   
    28    27    28 1   
    29    27    30 ar  
    30    28    29 1   
    31    30    31 1   
    32    30    33 ar  
    33    31    32 1   
    34    33    34 ar  
    35    34    35 1   
    36    35    36 1   
    37    36    37 2   
    38    36    45 1   
    39    37    38 1   
    40    38    39 ar  
    41    38    41 ar  
    42    39    40 1   
    43    39    44 ar  
    44    41    42 ar  
    45    41    45 1   
    46    42    43 ar  
    47    43    44 ar  
    48    43    51 1   
    49    45    46 1   
    50    46    47 1   
    51    47    48 1   
    52    48    49 1   
    53    49    50 3   
@<TRIPOS>SUBSTRUCTURE
     1 PU1         1 TEMP              0 ****  ****    0 ROOT
