@<TRIPOS>MOLECULE
PU1
   55    57     1     0     0
SMALL
bcc


@<TRIPOS>ATOM
      1 CL           2.2390    31.7810    24.8120 cl       301 PU1      -0.050400
      2 C1           0.4980    35.5240    23.5860 ca       301 PU1       0.470800
      3 N1          -0.0110    35.9710    22.4590 nb       301 PU1      -0.750000
      4 O1           7.5700    34.3150    25.1280 os       301 PU1      -0.316900
      5 C2          -0.3260    34.8510    24.4940 ca       301 PU1      -0.239200
      6 N2          -2.1110    35.1440    23.0100 nb       301 PU1      -0.812000
      7 O2           7.2630    31.9610    23.8480 os       301 PU1      -0.327900
      8 C3          -1.6800    34.6860    24.1920 ca       301 PU1       0.783200
      9 N3           0.4500    34.4990    25.5270 nc       301 PU1      -0.529100
     10 O3           4.7380    30.8560    23.5230 os       301 PU1      -0.325900
     11 C4          -1.2610    35.7390    22.1700 ca       301 PU1       0.896200
     12 N4           1.7500    35.5520    24.1150 na       301 PU1      -0.245000
     13 C5           1.6680    34.8760    25.2980 cd       301 PU1       0.405800
     14 N5          -2.5320    34.1060    25.1110 nh       301 PU1      -0.952500
     15 C6           2.8050    34.5730    26.2490 c3       301 PU1      -0.047400
     16 C7           2.9140    36.2090    23.4860 c3       301 PU1       0.043300
     17 C8           2.8750    37.7330    23.6810 c3       301 PU1      -0.103400
     18 C9           2.9620    38.1330    25.1540 c3       301 PU1      -0.086400
     19 C10          4.3350    38.0650    25.7120 c3       301 PU1      -0.081400
     20 C11          5.4100    38.0330    26.2000 c3       301 PU1      -0.096100
     21 C12          3.9340    33.8310    25.5540 ca       301 PU1      -0.050300
     22 C13          3.7780    32.5970    24.8890 ca       301 PU1      -0.004600
     23 C14          5.1960    34.4130    25.6190 ca       301 PU1      -0.202000
     24 C15          4.8990    31.9510    24.3320 ca       301 PU1       0.122100
     25 C16          6.3110    33.7850    25.0450 ca       301 PU1       0.114100
     26 C17          6.1510    32.5790    24.3590 ca       301 PU1       0.062100
     27 C18          7.7960    35.4490    25.9820 c3       301 PU1       0.110700
     28 C19          7.4940    31.8830    22.4340 c3       301 PU1       0.116700
     29 C20          4.8740    29.5380    24.0000 c3       301 PU1       0.115700
     30 F           -1.6560    36.1950    20.9810 f        301 PU1      -0.199200
     31 H01         -2.1740    33.7860    25.9990 hn       301 PU1       0.450300
     32 H02         -3.5130    34.0020    24.8950 hn       301 PU1       0.450300
     33 H03          2.4210    33.9380    27.0470 hc       301 PU1       0.082700
     34 H04          3.1910    35.5100    26.6500 hc       301 PU1       0.082700
     35 H05          2.8870    36.0010    22.4160 h1       301 PU1       0.069200
     36 H06          3.8270    35.8170    23.9340 h1       301 PU1       0.069200
     37 H07          1.9220    38.0940    23.2940 hc       301 PU1       0.063700
     38 H08          3.7150    38.1770    23.1470 hc       301 PU1       0.063700
     39 H09          2.3560    37.4200    25.7130 hc       301 PU1       0.048700
     40 H10          2.5990    39.1560    25.2550 hc       301 PU1       0.048700
     41 H11          4.3100    39.1430    25.8700 hc       301 PU1       0.033200
     42 H12          4.3760    36.9930    25.5180 hc       301 PU1       0.033200
     43 H13          6.0780    38.6950    25.6500 hc       301 PU1       0.035700
     44 H14          5.3480    38.3610    27.2380 hc       301 PU1       0.035700
     45 H15          5.7970    37.0150    26.1620 hc       301 PU1       0.035700
     46 H16          5.3200    35.3710    26.1230 ha       301 PU1       0.143000
     47 H17          8.6150    36.0470    25.5820 h1       301 PU1       0.047367
     48 H18          6.8920    36.0560    26.0280 h1       301 PU1       0.047367
     49 H19          8.0540    35.1050    26.9830 h1       301 PU1       0.047367
     50 H20          8.5430    31.6490    22.2500 h1       301 PU1       0.047033
     51 H21          6.8670    31.1010    22.0050 h1       301 PU1       0.047033
     52 H22          7.2490    32.8390    21.9720 h1       301 PU1       0.047033
     53 H23          5.6980    29.4930    24.7120 h1       301 PU1       0.048700
     54 H24          3.9510    29.2320    24.4930 h1       301 PU1       0.048700
     55 H25          5.0800    28.8680    23.1650 h1       301 PU1       0.048700
@<TRIPOS>BOND
     1     1    22 1   
     2     2     3 ar  
     3     2     5 ar  
     4     2    12 1   
     5     3    11 ar  
     6     4    25 1   
     7     4    27 1   
     8     5     8 ar  
     9     5     9 1   
    10     6     8 ar  
    11     6    11 ar  
    12     7    26 1   
    13     7    28 1   
    14     8    14 1   
    15     9    13 2   
    16    10    24 1   
    17    10    29 1   
    18    11    30 1   
    19    12    13 1   
    20    12    16 1   
    21    13    15 1   
    22    14    31 1   
    23    14    32 1   
    24    15    21 1   
    25    15    33 1   
    26    15    34 1   
    27    16    17 1   
    28    16    35 1   
    29    16    36 1   
    30    17    18 1   
    31    17    37 1   
    32    17    38 1   
    33    18    19 1   
    34    18    39 1   
    35    18    40 1   
    36    19    20 1   
    37    19    41 1   
    38    19    42 1   
    39    20    43 1   
    40    20    44 1   
    41    20    45 1   
    42    21    22 ar  
    43    21    23 ar  
    44    22    24 ar  
    45    23    25 ar  
    46    23    46 1   
    47    24    26 ar  
    48    25    26 ar  
    49    27    47 1   
    50    27    48 1   
    51    27    49 1   
    52    28    50 1   
    53    28    51 1   
    54    28    52 1   
    55    29    53 1   
    56    29    54 1   
    57    29    55 1   
@<TRIPOS>SUBSTRUCTURE
     1 PU1         1 TEMP              0 ****  ****    0 ROOT
