/web/media/ligands/5LR1_ligand.pdb
 OpenBabel04242009293D

 21 23  0  0  1  0  0  0  0  0999 V2000
   -1.3500   11.2760   24.7030 C   0  0  0  0  0  0  0  0  0  0  0  0
    1.9780    9.6790   26.5220 C   0  0  0  0  0  0  0  0  0  0  0  0
    0.6840   10.1570   26.1140 C   0  0  0  0  0  0  0  0  0  0  0  0
   -1.6430   10.6720   25.8880 N   0  0  0  0  0  0  0  0  0  0  0  0
    0.8600   10.8480   24.9170 C   0  0  0  0  0  0  0  0  0  0  0  0
    2.8550   10.1080   25.5900 C   0  0  0  0  0  0  0  0  0  0  0  0
    2.8500   11.5160   23.4810 C   0  0  0  0  0  0  0  0  0  0  0  0
    3.9180   12.4600   23.9900 C   0  0  0  0  0  0  0  0  0  0  0  0
    3.5990   13.7050   24.5440 C   0  0  0  0  0  0  0  0  0  0  0  0
    4.6890   14.4540   24.9780 C   0  0  0  0  0  0  0  0  0  0  0  0
   -0.6270   10.1470   26.5490 C   0  0  2  0  0  0  0  0  0  0  0  0
   -1.0030    9.4210   28.0750 Cl  0  0  0  0  0  0  0  0  0  0  0  0
   -0.1090   11.4220   24.1780 N   0  0  0  0  0  0  0  0  0  0  0  0
   -2.3840   11.7180   23.9640 N   0  0  0  0  0  0  0  0  0  0  0  0
    2.1970   10.8330   24.6080 N   0  0  0  0  0  0  0  0  0  0  0  0
    6.0140   14.0230   24.8720 C   0  0  0  0  0  0  0  0  0  0  0  0
    6.1770   12.7660   24.2990 C   0  0  0  0  0  0  0  0  0  0  0  0
    5.1720   11.9820   23.8780 N   0  0  0  0  0  0  0  0  0  0  0  0
    4.4200   16.0150   25.6950 Cl  0  0  0  0  0  0  0  0  0  0  0  0
    7.1860   14.8610   25.3090 C   0  0  0  0  0  0  0  0  0  0  0  0
    2.1820   14.2330   24.5880 C   0  0  0  0  0  0  0  0  0  0  0  0
  1  4  2  0  0  0  0
  3  2  1  0  0  0  0
  3 11  1  0  0  0  0
  4 11  1  0  0  0  0
  5  3  2  0  0  0  0
  6  2  2  0  0  0  0
  7  8  1  0  0  0  0
  7 15  1  0  0  0  0
  8  9  1  0  0  0  0
  9 21  1  0  0  0  0
  9 10  2  0  0  0  0
 10 19  1  0  0  0  0
 11 12  1  1  0  0  0
 13  1  1  0  0  0  0
 13  5  1  0  0  0  0
 14  1  1  0  0  0  0
 15  5  1  0  0  0  0
 15  6  1  0  0  0  0
 16 10  1  0  0  0  0
 16 20  1  0  0  0  0
 17 16  2  0  0  0  0
 18  8  2  0  0  0  0
 18 17  1  0  0  0  0
M  END
>  <REMARK>
 800 SITE_DESCRIPTION: binding site for residue 72Y A 4000                

>  <HET>
 72Y  A4000      21                                                       

>  <HETNAM>
     72Y 4-CHLORANYL-7-[(4-CHLORANYL-3,5-DIMETHYL-PYRIDIN-2-YL)           
   2 72Y  METHYL]PYRROLO[2,3-D]PYRIMIDIN-2-AMINE                          

>  <FORMUL>
   2  72Y    C14 H13 CL2 N5                                               

$$$$
