REMARK  Name = /web/media/ligands/5MTR_ligand.pdb
REMARK  6 active torsions:
REMARK  status: ('A' for Active; 'I' for Inactive)
REMARK    1  A    between atoms: C_2  and  C_3
REMARK    2  A    between atoms: C_8  and  O_9
REMARK    3  A    between atoms: O_9  and  C_10
REMARK    4  A    between atoms: C_16  and  C_17
REMARK    5  A    between atoms: C_17  and  N_18
REMARK    6  A    between atoms: C_22  and  C_23
REMARK                            x       y       z     vdW  Elec       q    Type
REMARK                         _______ _______ _______ _____ _____    ______ ____
ROOT
ATOM      1  C   UNL     1      25.971  -1.507  39.298  0.00  0.00    +0.184 A 
ATOM      2  C   UNL     1      26.679  -2.690  38.970  0.00  0.00    +0.230 A 
ATOM      3  O   UNL     1      27.612  -2.518  37.943  0.00  0.00    -0.283 OA
ATOM      4  C   UNL     1      26.469  -3.893  39.711  0.00  0.00    +0.043 A 
ATOM      5  C   UNL     1      25.498  -3.911  40.765  0.00  0.00    +0.006 A 
ATOM      6  C   UNL     1      24.821  -2.728  41.038  0.00  0.00    +0.001 A 
ATOM      7  C   UNL     1      25.022  -1.552  40.321  0.00  0.00    +0.041 A 
ENDROOT
BRANCH   1   8
ATOM      8  O   UNL     1      26.198  -0.331  38.608  0.00  0.00    -0.450 OA
BRANCH   8  14
ATOM      9  C   UNL     1      25.749   1.050  36.750  0.00  0.00    +0.103 A 
ATOM     10  C   UNL     1      25.010   1.339  35.603  0.00  0.00    +0.013 A 
ATOM     11  C   UNL     1      24.052   0.466  35.112  0.00  0.00    +0.001 A 
ATOM     12  C   UNL     1      23.818  -0.707  35.801  0.00  0.00    +0.003 A 
ATOM     13  C   UNL     1      24.508  -0.964  36.957  0.00  0.00    +0.038 A 
ATOM     14  C   UNL     1      25.486  -0.105  37.453  0.00  0.00    +0.155 A 
BRANCH   9  16
ATOM     15  N   UNL     1      27.448   2.740  37.590  0.00  0.00    -0.191 NA
ATOM     16  C   UNL     1      26.647   1.937  37.199  0.00  0.00    +0.103 C 
ENDBRANCH   9  16
ENDBRANCH   8  14
ENDBRANCH   1   8
BRANCH   5  17
ATOM     17  C   UNL     1      25.154  -5.023  41.592  0.00  0.00    +0.156 C 
BRANCH  17  18
ATOM     18  N   UNL     1      23.816  -5.528  41.274  0.00  0.00    -0.226 N 
ATOM     19  C   UNL     1      23.425  -6.388  40.340  0.00  0.00    +0.114 A 
ATOM     20  C   UNL     1      22.115  -6.547  40.455  0.00  0.00    +0.100 A 
ATOM     21  N   UNL     1      21.620  -5.813  41.469  0.00  0.00    -0.133 NA
ATOM     22  N   UNL     1      22.653  -5.201  42.003  0.00  0.00    -0.064 NA
BRANCH  20  23
ATOM     23  C   UNL     1      21.244  -7.441  39.556  0.00  0.00    +0.044 C 
ATOM     24  C   UNL     1      21.899  -8.825  39.317  0.00  0.00    +0.006 C 
ATOM     25  C   UNL     1      21.335  -9.603  40.438  0.00  0.00    +0.000 C 
ATOM     26  C   UNL     1      19.845  -9.338  40.321  0.00  0.00    +0.000 C 
ATOM     27  C   UNL     1      19.877  -7.801  40.224  0.00  0.00    +0.006 C 
ENDBRANCH  20  23
ENDBRANCH  17  18
ENDBRANCH   5  17
TORSDOF 6
