/web/media/ligands/5MTR_ligand.pdb
 OpenBabel04242009293D

 27 30  0  0  0  0  0  0  0  0999 V2000
   27.4480    2.7400   37.5900 N   0  0  0  0  0  0  0  0  0  0  0  0
   26.6470    1.9370   37.1990 C   0  0  0  0  0  0  0  0  0  0  0  0
   25.7490    1.0500   36.7500 C   0  0  0  0  0  0  0  0  0  0  0  0
   25.0100    1.3390   35.6030 C   0  0  0  0  0  0  0  0  0  0  0  0
   24.0520    0.4660   35.1120 C   0  0  0  0  0  0  0  0  0  0  0  0
   23.8180   -0.7070   35.8010 C   0  0  0  0  0  0  0  0  0  0  0  0
   24.5080   -0.9640   36.9570 C   0  0  0  0  0  0  0  0  0  0  0  0
   25.4860   -0.1050   37.4530 C   0  0  0  0  0  0  0  0  0  0  0  0
   26.1980   -0.3310   38.6080 O   0  0  0  0  0  0  0  0  0  0  0  0
   25.9710   -1.5070   39.2980 C   0  0  0  0  0  0  0  0  0  0  0  0
   26.6790   -2.6900   38.9700 C   0  0  0  0  0  0  0  0  0  0  0  0
   26.4690   -3.8930   39.7110 C   0  0  0  0  0  0  0  0  0  0  0  0
   27.6120   -2.5180   37.9430 O   0  0  0  0  0  0  0  0  0  0  0  0
   25.0220   -1.5520   40.3210 C   0  0  0  0  0  0  0  0  0  0  0  0
   24.8210   -2.7280   41.0380 C   0  0  0  0  0  0  0  0  0  0  0  0
   25.4980   -3.9110   40.7650 C   0  0  0  0  0  0  0  0  0  0  0  0
   25.1540   -5.0230   41.5920 C   0  0  0  0  0  0  0  0  0  0  0  0
   23.8160   -5.5280   41.2740 N   0  0  0  0  0  0  0  0  0  0  0  0
   23.4250   -6.3880   40.3400 C   0  0  0  0  0  0  0  0  0  0  0  0
   22.6530   -5.2010   42.0030 N   0  0  0  0  0  0  0  0  0  0  0  0
   21.6200   -5.8130   41.4690 N   0  0  0  0  0  0  0  0  0  0  0  0
   22.1150   -6.5470   40.4550 C   0  0  0  0  0  0  0  0  0  0  0  0
   21.2440   -7.4410   39.5560 C   0  0  0  0  0  0  0  0  0  0  0  0
   19.8770   -7.8010   40.2240 C   0  0  0  0  0  0  0  0  0  0  0  0
   19.8450   -9.3380   40.3210 C   0  0  0  0  0  0  0  0  0  0  0  0
   21.3350   -9.6030   40.4380 C   0  0  0  0  0  0  0  0  0  0  0  0
   21.8990   -8.8250   39.3170 C   0  0  0  0  0  0  0  0  0  0  0  0
  2  1  3  0  0  0  0
  3  2  1  0  0  0  0
  3  8  2  0  0  0  0
  4  3  1  0  0  0  0
  5  4  2  0  0  0  0
  5  6  1  0  0  0  0
  6  7  2  0  0  0  0
  7  8  1  0  0  0  0
  8  9  1  0  0  0  0
  9 10  1  0  0  0  0
 10 14  1  0  0  0  0
 11 10  2  0  0  0  0
 11 12  1  0  0  0  0
 12 16  2  0  0  0  0
 13 11  1  0  0  0  0
 14 15  2  0  0  0  0
 16 15  1  0  0  0  0
 16 17  1  0  0  0  0
 18 17  1  0  0  0  0
 18 20  1  0  0  0  0
 19 22  2  0  0  0  0
 19 18  1  0  0  0  0
 21 20  2  0  0  0  0
 22 21  1  0  0  0  0
 23 24  1  0  0  0  0
 23 22  1  0  0  0  0
 24 25  1  0  0  0  0
 25 26  1  0  0  0  0
 27 23  1  0  0  0  0
 27 26  1  0  0  0  0
M  END
>  <REMARK>
 800 SITE_DESCRIPTION: binding site for residue XT0 A 302                 
 800 SITE_DESCRIPTION: binding site for residue XT0 B 302                 
 800 SITE_DESCRIPTION: binding site for residue XT0 E 302                 
 800 SITE_DESCRIPTION: binding site for residue XT0 G 302                 
 800 SITE_DESCRIPTION: binding site for residue XT0 C 302                 
 800 SITE_DESCRIPTION: binding site for residue XT0 D 302                 
 800 SITE_DESCRIPTION: binding site for residue XT0 F 302                 
 800 SITE_DESCRIPTION: binding site for residue XT0 H 302                 

>  <HET>
 XT0  A 302      27                                                       
 XT0  B 302      27                                                       
 XT0  E 302      27                                                       
 XT0  G 302      27                                                       
 XT0  C 302      27                                                       
 XT0  D 302      27                                                       
 XT0  F 302      27                                                       
 XT0  H 302      27                                                       

>  <HETNAM>
     XT0 2-[4-[(4-CYCLOPENTYL-1,2,3-TRIAZOL-1-YL)METHYL]-2-               
   2 XT0  OXIDANYL-PHENOXY]BENZENECARBONITRILE                            

>  <HETSYN>
     XT0 PT512                                                            

>  <FORMUL>
  10  XT0    8(C21 H20 N4 O2)                                             

>  <SITE>
   6 AC1 33 ILE A 194  THR A 196  ALA A 198  XT0 A 302                    
   6 AC3 32 THR B 196  LEU B 197  ALA B 198  XT0 B 302                    
   6 AC5 32 ILE E 194  THR E 196  ALA E 198  XT0 E 302                    
   7 AC7 31 XT0 G 302  HOH G 424  HOH G 427  HOH G 436                    
   7 AC9 34 XT0 C 302  HOH C 404  HOH C 415  HOH C 443                    
   6 AD3 30 ILE D 194  THR D 196  ALA D 198  XT0 D 302                    
   6 AD5 31 ILE F 194  THR F 196  ALA F 198  XT0 F 302                    
   7 AD7 31 XT0 H 302  HOH H 405  HOH H 423  HOH H 431                    

$$$$
