/web/media/ligands/5J64_ligand.pdb
 OpenBabel04242009293D

 21 23  0  0  0  0  0  0  0  0999 V2000
   -1.5020   11.8960   22.6250 C   0  0  0  0  0  0  0  0  0  0  0  0
   -2.7760   11.5690   23.1120 C   0  0  0  0  0  0  0  0  0  0  0  0
   -2.8820   10.7870   24.2410 C   0  0  0  0  0  0  0  0  0  0  0  0
   -1.8020    9.4500   26.0460 C   0  0  0  0  0  0  0  0  0  0  0  0
   -1.5450    7.6380   27.3300 C   0  0  0  0  0  0  0  0  0  0  0  0
   -0.2950    7.5730   25.2080 C   0  0  0  0  0  0  0  0  0  0  0  0
    1.0200    7.4080   25.5890 C   0  0  0  0  0  0  0  0  0  0  0  0
    1.9510    6.8630   24.7070 C   0  0  0  0  0  0  0  0  0  0  0  0
   -0.7190    7.1920   23.9420 C   0  0  0  0  0  0  0  0  0  0  0  0
   -1.7370   10.3590   24.9110 C   0  0  0  0  0  0  0  0  0  0  0  0
   -0.4680   10.6830   24.4140 C   0  0  0  0  0  0  0  0  0  0  0  0
   -0.3610   11.4700   23.2840 C   0  0  0  0  0  0  0  0  0  0  0  0
   -1.3740   12.6040   21.4730 O   0  0  0  0  0  0  0  0  0  0  0  0
   -4.1130   10.4730   24.7470 O   0  0  0  0  0  0  0  0  0  0  0  0
   -2.5640    9.6300   27.0970 N   0  0  0  0  0  0  0  0  0  0  0  0
   -2.3710    8.5030   27.9270 N   0  0  0  0  0  0  0  0  0  0  0  0
   -1.1610    8.1970   26.1510 N   0  0  0  0  0  0  0  0  0  0  0  0
    1.5330    6.4620   23.4330 C   0  0  0  0  0  0  0  0  0  0  0  0
    0.2030    6.6220   23.0770 C   0  0  0  0  0  0  0  0  0  0  0  0
   -1.1910    6.5610   27.7820 O   0  0  0  0  0  0  0  0  0  0  0  0
    1.3790    7.7530   26.8410 F   0  0  0  0  0  0  0  0  0  0  0  0
  1  2  2  0  0  0  0
  1 12  1  0  0  0  0
  2  3  1  0  0  0  0
  3 14  1  0  0  0  0
  3 10  2  0  0  0  0
  4 17  1  0  0  0  0
  4 15  2  0  0  0  0
  5 20  2  0  0  0  0
  5 16  1  0  0  0  0
  6  7  1  0  0  0  0
  6 17  1  0  0  0  0
  7 21  1  0  0  0  0
  8  7  2  0  0  0  0
  9  6  2  0  0  0  0
 10  4  1  0  0  0  0
 11 10  1  0  0  0  0
 12 11  2  0  0  0  0
 13  1  1  0  0  0  0
 15 16  1  0  0  0  0
 17  5  1  0  0  0  0
 18  8  1  0  0  0  0
 19 18  2  0  0  0  0
 19  9  1  0  0  0  0
M  END
>  <REMARK>
 800 SITE_DESCRIPTION: binding site for residue 6G7 A 301                 

>  <HET>
 6G7  A 301      21                                                       

>  <HETNAM>
     6G7 5-(2,4-DIHYDROXYPHENYL)-4-(2-FLUOROPHENYL)-2,4-DIHYDRO-          
   2 6G7  3H-1,2,4-TRIAZOL-3-ONE                                          

>  <FORMUL>
   2  6G7    C14 H10 F N3 O3                                              

$$$$
