REMARK  Name = /web/media/ligands/5J64_ligand.pdb
REMARK  2 active torsions:
REMARK  status: ('A' for Active; 'I' for Inactive)
REMARK    1  A    between atoms: C_4  and  C_10
REMARK    2  A    between atoms: C_6  and  N_17
REMARK                            x       y       z     vdW  Elec       q    Type
REMARK                         _______ _______ _______ _____ _____    ______ ____
ROOT
ATOM      1  C   UNL     1      -1.802   9.450  26.046  0.00  0.00    +0.176 A 
ATOM      2  N   UNL     1      -2.564   9.630  27.097  0.00  0.00    -0.125 NA
ATOM      3  N   UNL     1      -2.371   8.503  27.927  0.00  0.00    -0.088 NA
ATOM      4  C   UNL     1      -1.545   7.638  27.330  0.00  0.00    +0.373 A 
ATOM      5  O   UNL     1      -1.191   6.561  27.782  0.00  0.00    -0.242 OA
ATOM      6  N   UNL     1      -1.161   8.197  26.151  0.00  0.00    -0.238 N 
ENDROOT
BRANCH   1  11
ATOM      7  C   UNL     1      -1.502  11.896  22.625  0.00  0.00    +0.199 A 
ATOM      8  O   UNL     1      -1.374  12.604  21.473  0.00  0.00    -0.286 OA
ATOM      9  C   UNL     1      -0.361  11.470  23.284  0.00  0.00    +0.042 A 
ATOM     10  C   UNL     1      -0.468  10.683  24.414  0.00  0.00    +0.010 A 
ATOM     11  C   UNL     1      -1.737  10.359  24.911  0.00  0.00    +0.075 A 
ATOM     12  C   UNL     1      -2.882  10.787  24.241  0.00  0.00    +0.202 A 
ATOM     13  O   UNL     1      -4.113  10.473  24.747  0.00  0.00    -0.286 OA
ATOM     14  C   UNL     1      -2.776  11.569  23.112  0.00  0.00    +0.084 A 
ENDBRANCH   1  11
BRANCH   6  15
ATOM     15  C   UNL     1      -0.295   7.573  25.208  0.00  0.00    +0.097 A 
ATOM     16  C   UNL     1      -0.719   7.192  23.942  0.00  0.00    +0.020 A 
ATOM     17  C   UNL     1       0.203   6.622  23.077  0.00  0.00    +0.002 A 
ATOM     18  C   UNL     1       1.533   6.462  23.433  0.00  0.00    +0.002 A 
ATOM     19  C   UNL     1       1.951   6.863  24.707  0.00  0.00    +0.031 A 
ATOM     20  C   UNL     1       1.020   7.408  25.589  0.00  0.00    +0.156 A 
ATOM     21  F   UNL     1       1.379   7.753  26.841  0.00  0.00    -0.203 F 
ENDBRANCH   6  15
TORSDOF 2
