@<TRIPOS>MOLECULE
/web/media/ligands/5NYH_ligand.pdb
 33 37 0 0 0
SMALL
GASTEIGER

@<TRIPOS>ATOM
      1 C          -0.1620   33.7110   21.7930 C.2     1  UNL1        0.2559
      2 C          -1.2960   32.6640   23.7750 C.ar    1  UNL1        0.2016
      3 C          -0.0500   31.8070   25.6150 C.ar    1  UNL1        0.1077
      4 C           1.1580   32.1350   24.9810 C.ar    1  UNL1        0.0436
      5 C           2.2130   31.7700   25.9080 C.ar    1  UNL1        0.1576
      6 C           3.6720   32.0490   25.6960 C.2     1  UNL1        0.2686
      7 C           5.8190   31.4030   24.6350 C.3     1  UNL1        0.0938
      8 C           3.8890   29.9850   24.3450 C.3     1  UNL1        0.0938
      9 C           1.2170   35.5700   22.6790 C.ar    1  UNL1        0.0542
     10 C           2.5660   35.7920   22.5200 C.ar    1  UNL1        0.0162
     11 C           1.2830   36.7850   24.7470 C.ar    1  UNL1        0.0158
     12 C           0.3960   35.5850   20.3680 C.3     1  UNL1        0.1203
     13 C           5.3690   38.9710   26.2050 C.3     1  UNL1        0.1636
     14 C           3.7110   38.6490   27.7900 C.3     1  UNL1        0.1636
     15 C           2.7030   38.2080   26.7590 C.3     1  UNL1        0.1231
     16 N           0.4690   34.9060   21.6520 N.am    1  UNL1       -0.2533
     17 O          -0.7980   33.2150   20.8950 O.2     1  UNL1       -0.2695
     18 C          -0.0990   33.0200   23.1240 C.ar    1  UNL1        0.0929
     19 C           1.1230   32.7360   23.7300 C.ar    1  UNL1        0.0110
     20 C          -1.2780   32.0580   25.0210 C.ar    1  UNL1        0.0631
     21 O          -2.4840   32.9000   23.1810 O.3     1  UNL1       -0.2864
     22 N           1.6230   31.2520   26.9930 N.ar    1  UNL1       -0.1433
     23 N           0.2840   31.2840   26.8160 N.ar    1  UNL1       -0.1477
     24 N           4.4010   31.2150   24.9440 N.am    1  UNL1       -0.2748
     25 C           6.2420   30.0610   24.1000 C.3     1  UNL1        0.0233
     26 C           5.0470   29.4690   23.5320 C.3     1  UNL1        0.0233
     27 O           4.1380   33.0200   26.2430 O.2     1  UNL1       -0.2682
     28 C           2.6440   37.0150   24.5930 C.ar    1  UNL1        0.0481
     29 C           3.2710   36.5100   23.4630 C.ar    1  UNL1        0.0158
     30 C           0.5790   36.0670   23.7990 C.ar    1  UNL1        0.0162
     31 N           3.3800   37.6940   25.5620 N.pl3   1  UNL1       -0.3028
     32 C           4.4650   38.5450   25.0630 C.3     1  UNL1        0.1231
     33 O           4.6300   39.5630   27.2540 O.3     1  UNL1       -0.3501
@<TRIPOS>BOND
     1     1    18    1
     2     2    20   ar
     3     3    23   ar
     4     4     3   ar
     5     4     5   ar
     6     5    22   ar
     7     6     5    1
     8     6    27    2
     9     7    24    1
    10     8    24    1
    11     9    30   ar
    12    10     9   ar
    13    10    29   ar
    14    12    16    1
    15    13    33    1
    16    15    14    1
    17    16     1   am
    18    16     9    1
    19    17     1    2
    20    18    19   ar
    21    18     2   ar
    22    19     4   ar
    23    20     3   ar
    24    21     2    1
    25    23    22   ar
    26    24     6   am
    27    25     7    1
    28    26    25    1
    29    26     8    1
    30    28    11   ar
    31    28    31    1
    32    29    28   ar
    33    30    11   ar
    34    31    15    1
    35    32    31    1
    36    32    13    1
    37    33    14    1
