@<TRIPOS>MOLECULE
73J
   53    59     1     0     0
SMALL
bcc


@<TRIPOS>ATOM
      1 C1          32.0610    25.9670    10.2730 ca      4000 73J      -0.252300
      2 C2          33.2560    26.6220    10.0150 ca      4000 73J       0.405200
      3 N3          34.4590    26.1770    10.4190 nb      4000 73J      -0.654000
      4 C4          32.0880    24.7720    11.0030 ca      4000 73J      -0.056600
      5 N5          35.5700    24.2920    11.4960 na      4000 73J      -0.288100
      6 C6          35.1450    23.1190    12.0800 cc      4000 73J      -0.096100
      7 C7          33.7890    23.0550    12.0600 cd      4000 73J      -0.167200
      8 C8          33.3320    24.2570    11.4230 ca      4000 73J      -0.159100
      9 C9          34.4820    25.0040    11.0870 ca      4000 73J       0.416800
     10 C10         30.8230    24.0660    11.3860 c       4000 73J       0.675700
     11 N11         29.7480    24.8050    11.6980 n       4000 73J      -0.561900
     12 O12         30.8040    22.8460    11.4780 o       4000 73J      -0.591100
     13 C13         27.3790    23.2860    10.2290 ca      4000 73J      -0.105000
     14 C14         24.9860    23.5850    10.1990 ca      4000 73J      -0.128000
     15 C15         26.1530    23.1140     9.6020 ca      4000 73J      -0.123000
     16 C16         25.0370    24.2360    11.4250 ca      4000 73J      -0.098000
     17 C17         26.2690    24.4190    12.0610 cp      4000 73J      -0.047000
     18 C18         27.4400    23.9310    11.4630 ca      4000 73J      -0.106300
     19 C19         28.5970    24.1790    12.3600 c3      4000 73J       0.193300
     20 C20         26.6640    25.1160    13.3110 cp      4000 73J       0.002000
     21 C21         28.0560    24.9770    13.4680 ca      4000 73J      -0.118300
     22 C22         28.7150    25.5630    14.5470 ca      4000 73J      -0.085000
     23 C23         28.0060    26.3010    15.4790 ca      4000 73J      -0.136000
     24 C24         26.6380    26.4720    15.3380 ca      4000 73J      -0.091000
     25 C25         25.9620    25.8770    14.2670 ca      4000 73J      -0.106900
     26 C26         24.5120    26.1110    14.2190 cc      4000 73J       0.472400
     27 N27         23.9480    27.3330    14.4230 na      4000 73J      -0.276300
     28 N28         23.6070    25.1510    14.0610 nd      4000 73J      -0.547100
     29 C29         22.3790    25.7900    14.1930 ca      4000 73J       0.082400
     30 C30         22.5790    27.1510    14.4200 ca      4000 73J      -0.089200
     31 C31         21.5170    28.0330    14.5990 ca      4000 73J      -0.111000
     32 C32         20.2230    27.5260    14.5640 ca      4000 73J      -0.146000
     33 C33         20.0520    26.1690    14.3390 ca      4000 73J       0.099900
     34 C34         21.0850    25.2790    14.1420 ca      4000 73J      -0.106000
     35 F35         18.7960    25.6680    14.3730 f       4000 73J      -0.142900
     36 H01         31.1160    26.3750     9.9140 ha      4000 73J       0.146000
     37 H02         33.2180    27.5540     9.4510 h4      4000 73J       0.026100
     38 H03         36.5330    24.5780    11.3880 hn      4000 73J       0.311700
     39 H04         35.8010    22.3550    12.4970 h4      4000 73J       0.172000
     40 H05         33.1690    22.2480    12.4510 ha      4000 73J       0.178000
     41 H06         29.7300    25.7910    11.4780 hn      4000 73J       0.319500
     42 H07         28.2910    22.9180     9.7580 ha      4000 73J       0.144000
     43 H08         24.0270    23.4420     9.7010 ha      4000 73J       0.137000
     44 H09         26.1030    22.6080     8.6380 ha      4000 73J       0.136000
     45 H10         24.1210    24.6020    11.8890 ha      4000 73J       0.147000
     46 H11         29.0230    23.2390    12.7120 h1      4000 73J       0.120700
     47 H12         29.7920    25.4400    14.6570 ha      4000 73J       0.147000
     48 H13         28.5250    26.7490    16.3260 ha      4000 73J       0.141000
     49 H14         26.0870    27.0710    16.0630 ha      4000 73J       0.148000
     50 H15         24.4380    28.2070    14.5520 hn      4000 73J       0.311700
     51 H16         21.6960    29.0960    14.7630 ha      4000 73J       0.141000
     52 H17         19.3630    28.1800    14.7100 ha      4000 73J       0.150000
     53 H18         20.8970    24.2220    13.9550 ha      4000 73J       0.166000
@<TRIPOS>BOND
     1     1     2 ar  
     2     1     4 ar  
     3     1    36 1   
     4     2     3 ar  
     5     2    37 1   
     6     3     9 ar  
     7     4     8 ar  
     8     4    10 1   
     9     5     6 1   
    10     5     9 1   
    11     5    38 1   
    12     6     7 2   
    13     6    39 1   
    14     7     8 1   
    15     7    40 1   
    16     8     9 ar  
    17    10    11 1   
    18    10    12 2   
    19    11    19 1   
    20    11    41 1   
    21    13    15 ar  
    22    13    18 ar  
    23    13    42 1   
    24    14    15 ar  
    25    14    16 ar  
    26    14    43 1   
    27    15    44 1   
    28    16    17 ar  
    29    16    45 1   
    30    17    18 ar  
    31    17    20 1   
    32    18    19 1   
    33    19    21 1   
    34    19    46 1   
    35    20    21 ar  
    36    20    25 ar  
    37    21    22 ar  
    38    22    23 ar  
    39    22    47 1   
    40    23    24 ar  
    41    23    48 1   
    42    24    25 ar  
    43    24    49 1   
    44    25    26 1   
    45    26    27 1   
    46    26    28 2   
    47    27    30 1   
    48    27    50 1   
    49    28    29 1   
    50    29    30 ar  
    51    29    34 ar  
    52    30    31 ar  
    53    31    32 ar  
    54    31    51 1   
    55    32    33 ar  
    56    32    52 1   
    57    33    34 ar  
    58    33    35 1   
    59    34    53 1   
@<TRIPOS>SUBSTRUCTURE
     1 73J         1 TEMP              0 ****  ****    0 ROOT
