@<TRIPOS>MOLECULE
73J
   53    59     1     0     0
SMALL
bcc


@<TRIPOS>ATOM
      1 H06         26.1030    22.6080     8.6380 ha         0 73J       0.136000
      2 H07         31.1160    26.3750     9.9140 ha         0 73J       0.152000
      3 H16         21.6960    29.0960    14.7630 ha         0 73J       0.155000
      4 H12         29.7920    25.4400    14.6570 ha         0 73J       0.144000
      5 H05         24.0270    23.4420     9.7010 ha         0 73J       0.138000
      6 H10         24.1210    24.6020    11.8890 ha         0 73J       0.148000
      7 H11         29.0230    23.2390    12.7120 h1         0 73J       0.115700
      8 H01         31.5930    24.3200    10.1440 hc         0 73J       0.122700
      9 H02         35.8010    22.3550    12.4970 h4         0 73J       0.046100
     10 H13         28.5250    26.7490    16.3260 ha         0 73J       0.141000
     11 H09         29.7300    25.7910    11.4780 hn         0 73J       0.327500
     12 H03         33.1690    22.2480    12.4510 ha         0 73J       0.173000
     13 H08         33.2180    27.5540     9.4510 h4         0 73J       0.171000
     14 H18         20.8970    24.2220    13.9550 ha         0 73J       0.153000
     15 H15         23.7740    24.1710    13.8840 hn         0 73J       0.312700
     16 H14         26.0870    27.0710    16.0630 ha         0 73J       0.149000
     17 H17         19.3630    28.1800    14.7100 ha         0 73J       0.151000
     18 H04         28.2910    22.9180     9.7580 ha         0 73J       0.141000
     19 C           32.0880    24.7720    11.0030 c3         0 73J      -0.050200
     20 C1          35.1450    23.1190    12.0800 cc         0 73J       0.410200
     21 C2          33.7890    23.0550    12.0600 cc         0 73J      -0.222300
     22 C3          33.3320    24.2570    11.4230 cd         0 73J      -0.215600
     23 C4          34.4820    25.0040    11.0870 cd         0 73J       0.341300
     24 C5          30.8230    24.0660    11.3860 c          0 73J       0.673100
     25 N           34.4590    26.1770    10.4190 ne         0 73J      -0.194600
     26 C6          27.3790    23.2860    10.2290 ca         0 73J      -0.106000
     27 C7          24.9860    23.5850    10.1990 ca         0 73J      -0.126000
     28 C8          26.1530    23.1140     9.6020 ca         0 73J      -0.123000
     29 C9          32.0610    25.9670    10.2730 c2         0 73J      -0.192200
     30 C10         33.2560    26.6220    10.0150 ce         0 73J       0.040600
     31 N1          35.5700    24.2920    11.4960 nd         0 73J      -0.613000
     32 N2          29.7480    24.8050    11.6980 n          0 73J      -0.548900
     33 O           30.8040    22.8460    11.4780 o          0 73J      -0.602100
     34 C11         25.0370    24.2360    11.4250 ca         0 73J      -0.096000
     35 C12         26.2690    24.4190    12.0610 cp         0 73J      -0.046000
     36 C13         27.4400    23.9310    11.4630 ca         0 73J      -0.109300
     37 C14         28.5970    24.1790    12.3600 c3         0 73J       0.193300
     38 C15         26.6640    25.1160    13.3110 cp         0 73J       0.003000
     39 C16         28.0560    24.9770    13.4680 ca         0 73J      -0.117300
     40 C17         28.7150    25.5630    14.5470 ca         0 73J      -0.085000
     41 C18         28.0060    26.3010    15.4790 ca         0 73J      -0.135000
     42 C19         26.6380    26.4720    15.3380 ca         0 73J      -0.089000
     43 C20         25.9620    25.8770    14.2670 ca         0 73J      -0.102900
     44 C21         24.5120    26.1110    14.2190 cc         0 73J       0.463400
     45 N3          23.9480    27.3330    14.4230 nd         0 73J      -0.540100
     46 N4          23.6070    25.1510    14.0610 na         0 73J      -0.277300
     47 C22         22.3790    25.7900    14.1930 ca         0 73J      -0.051200
     48 C23         22.5790    27.1510    14.4200 ca         0 73J       0.044400
     49 C24         21.5170    28.0330    14.5990 ca         0 73J      -0.042000
     50 C25         20.2230    27.5260    14.5640 ca         0 73J      -0.188000
     51 C26         20.0520    26.1690    14.3390 ca         0 73J       0.143900
     52 C27         21.0850    25.2790    14.1420 ca         0 73J      -0.179000
     53 F           18.7960    25.6680    14.3730 f          0 73J      -0.140900
@<TRIPOS>BOND
     1     1    28 1   
     2     2    29 1   
     3     3    49 1   
     4     4    40 1   
     5     5    27 1   
     6     6    34 1   
     7     7    37 1   
     8     8    19 1   
     9     9    20 1   
    10    10    41 1   
    11    11    32 1   
    12    12    21 1   
    13    13    30 1   
    14    14    52 1   
    15    15    46 1   
    16    16    42 1   
    17    17    50 1   
    18    18    26 1   
    19    19    22 1   
    20    19    24 1   
    21    19    29 1   
    22    20    21 1   
    23    20    31 2   
    24    21    22 2   
    25    22    23 1   
    26    23    25 2   
    27    23    31 1   
    28    24    32 1   
    29    24    33 2   
    30    25    30 1   
    31    26    28 ar  
    32    26    36 ar  
    33    27    28 ar  
    34    27    34 ar  
    35    29    30 2   
    36    32    37 1   
    37    34    35 ar  
    38    35    36 ar  
    39    35    38 1   
    40    36    37 1   
    41    37    39 1   
    42    38    39 ar  
    43    38    43 ar  
    44    39    40 ar  
    45    40    41 ar  
    46    41    42 ar  
    47    42    43 ar  
    48    43    44 1   
    49    44    45 2   
    50    44    46 1   
    51    45    48 1   
    52    46    47 1   
    53    47    48 ar  
    54    47    52 ar  
    55    48    49 ar  
    56    49    50 ar  
    57    50    51 ar  
    58    51    52 ar  
    59    51    53 1   
@<TRIPOS>SUBSTRUCTURE
     1 73J         1 TEMP              0 ****  ****    0 ROOT
