REMARK  Name = /web/media/ligands/2VCJ_ligand.pdb
REMARK  6 active torsions:
REMARK  status: ('A' for Active; 'I' for Inactive)
REMARK    1  A    between atoms: N_6  and  C_7
REMARK    2  A    between atoms: C_7  and  C_8
REMARK    3  A    between atoms: C_13  and  C_14
REMARK    4  A    between atoms: C_15  and  C_16
REMARK    5  A    between atoms: N_18  and  C_19
REMARK    6  A    between atoms: C_23  and  C_24
REMARK                            x       y       z     vdW  Elec       q    Type
REMARK                         _______ _______ _______ _____ _____    ______ ____
ROOT
ATOM      1  C   UNL     1      31.879   8.700  26.377  0.00  0.00    +0.063 A 
ATOM      2  C   UNL     1      31.112   9.814  26.161  0.00  0.00    +0.180 A 
ATOM      3  O   UNL     1      30.343   9.989  27.247  0.00  0.00    -0.353 OA
ATOM      4  N   UNL     1      30.636   8.974  28.152  0.00  0.00    -0.072 NA
ATOM      5  C   UNL     1      31.553   8.205  27.614  0.00  0.00    +0.178 A 
ENDROOT
BRANCH   2   6
ATOM      6  C   UNL     1      31.135  10.616  25.032  0.00  0.00    +0.077 A 
ATOM      7  C   UNL     1      29.967  11.034  24.455  0.00  0.00    +0.202 A 
ATOM      8  O   UNL     1      28.803  10.663  24.984  0.00  0.00    -0.286 OA
ATOM      9  C   UNL     1      29.988  11.828  23.332  0.00  0.00    +0.085 A 
ATOM     10  C   UNL     1      31.191  12.223  22.783  0.00  0.00    +0.209 A 
ATOM     11  O   UNL     1      31.228  12.999  21.691  0.00  0.00    -0.286 OA
ATOM     12  C   UNL     1      32.368  11.817  23.356  0.00  0.00    +0.097 A 
ATOM     13 CL   UNL     1      33.832  12.330  22.633  0.00  0.00    -0.079 Cl
ATOM     14  C   UNL     1      32.342  11.012  24.487  0.00  0.00    +0.021 A 
ENDBRANCH   2   6
BRANCH   1  18
ATOM     15  C   UNL     1      34.553   7.294  23.570  0.00  0.00    -0.006 A 
ATOM     16  C   UNL     1      33.211   7.060  23.411  0.00  0.00    -0.003 A 
ATOM     17  C   UNL     1      32.330   7.525  24.363  0.00  0.00    -0.000 A 
ATOM     18  C   UNL     1      32.789   8.222  25.463  0.00  0.00    +0.005 A 
ATOM     19  C   UNL     1      34.133   8.462  25.615  0.00  0.00    -0.000 A 
ATOM     20  C   UNL     1      35.010   7.995  24.665  0.00  0.00    -0.003 A 
BRANCH  15  21
ATOM     21  C   UNL     1      35.533   6.790  22.539  0.00  0.00    +0.099 C 
BRANCH  21  23
ATOM     22  C   UNL     1      36.092   4.776  23.948  0.00  0.00    +0.105 C 
ATOM     23  N   UNL     1      35.705   5.355  22.666  0.00  0.00    -0.265 NA
ATOM     24  C   UNL     1      35.478   4.510  21.496  0.00  0.00    +0.105 C 
ATOM     25  C   UNL     1      36.411   3.329  21.506  0.00  0.00    +0.159 C 
ATOM     26  O   UNL     1      37.407   3.788  22.346  0.00  0.00    -0.351 OA
ATOM     27  C   UNL     1      37.030   3.626  23.689  0.00  0.00    +0.159 C 
ENDBRANCH  21  23
ENDBRANCH  15  21
ENDBRANCH   1  18
BRANCH   5  28
ATOM     28  C   UNL     1      32.159   7.011  28.304  0.00  0.00    +0.286 C 
ATOM     29  O   UNL     1      32.835   6.197  27.707  0.00  0.00    -0.267 OA
ATOM     30  N   UNL     1      32.004   7.018  29.607  0.00  0.00    -0.200 NA
BRANCH  30  31
ATOM     31  C   UNL     1      32.527   5.963  30.470  0.00  0.00    +0.116 C 
ATOM     32  C   UNL     1      34.028   6.110  30.646  0.00  0.00    +0.025 C 
ENDBRANCH  30  31
ENDBRANCH   5  28
TORSDOF 6
