/web/media/ligands/2VCJ_ligand.pdb
 OpenBabel04242009293D

 32 35  0  0  0  0  0  0  0  0999 V2000
   36.0920    4.7760   23.9480 C   0  0  0  0  0  0  0  0  0  0  0  0
   37.0300    3.6260   23.6890 C   0  0  0  0  0  0  0  0  0  0  0  0
   37.4070    3.7880   22.3460 O   0  0  0  0  0  0  0  0  0  0  0  0
   36.4110    3.3290   21.5060 C   0  0  0  0  0  0  0  0  0  0  0  0
   35.4780    4.5100   21.4960 C   0  0  0  0  0  0  0  0  0  0  0  0
   35.7050    5.3550   22.6660 N   0  0  0  0  0  0  0  0  0  0  0  0
   35.5330    6.7900   22.5390 C   0  0  0  0  0  0  0  0  0  0  0  0
   34.5530    7.2940   23.5700 C   0  0  0  0  0  0  0  0  0  0  0  0
   35.0100    7.9950   24.6650 C   0  0  0  0  0  0  0  0  0  0  0  0
   34.1330    8.4620   25.6150 C   0  0  0  0  0  0  0  0  0  0  0  0
   33.2110    7.0600   23.4110 C   0  0  0  0  0  0  0  0  0  0  0  0
   32.3300    7.5250   24.3630 C   0  0  0  0  0  0  0  0  0  0  0  0
   32.7890    8.2220   25.4630 C   0  0  0  0  0  0  0  0  0  0  0  0
   31.8790    8.7000   26.3770 C   0  0  0  0  0  0  0  0  0  0  0  0
   31.5530    8.2050   27.6140 C   0  0  0  0  0  0  0  0  0  0  0  0
   32.1590    7.0110   28.3040 C   0  0  0  0  0  0  0  0  0  0  0  0
   32.8350    6.1970   27.7070 O   0  0  0  0  0  0  0  0  0  0  0  0
   32.0040    7.0180   29.6070 N   0  0  0  0  0  0  0  0  0  0  0  0
   32.5270    5.9630   30.4700 C   0  0  0  0  0  0  0  0  0  0  0  0
   34.0280    6.1100   30.6460 C   0  0  0  0  0  0  0  0  0  0  0  0
   30.6360    8.9740   28.1520 N   0  0  0  0  0  0  0  0  0  0  0  0
   30.3430    9.9890   27.2470 O   0  0  0  0  0  0  0  0  0  0  0  0
   31.1120    9.8140   26.1610 C   0  0  0  0  0  0  0  0  0  0  0  0
   31.1350   10.6160   25.0320 C   0  0  0  0  0  0  0  0  0  0  0  0
   32.3420   11.0120   24.4870 C   0  0  0  0  0  0  0  0  0  0  0  0
   32.3680   11.8170   23.3560 C   0  0  0  0  0  0  0  0  0  0  0  0
   33.8320   12.3300   22.6330 Cl  0  0  0  0  0  0  0  0  0  0  0  0
   31.1910   12.2230   22.7830 C   0  0  0  0  0  0  0  0  0  0  0  0
   31.2280   12.9990   21.6910 O   0  0  0  0  0  0  0  0  0  0  0  0
   29.9880   11.8280   23.3320 C   0  0  0  0  0  0  0  0  0  0  0  0
   29.9670   11.0340   24.4550 C   0  0  0  0  0  0  0  0  0  0  0  0
   28.8030   10.6630   24.9840 O   0  0  0  0  0  0  0  0  0  0  0  0
  2  1  1  0  0  0  0
  3  2  1  0  0  0  0
  4  3  1  0  0  0  0
  5  4  1  0  0  0  0
  5  6  1  0  0  0  0
  6  1  1  0  0  0  0
  7  6  1  0  0  0  0
  7  8  1  0  0  0  0
  8  9  1  0  0  0  0
  9 10  2  0  0  0  0
 11  8  2  0  0  0  0
 11 12  1  0  0  0  0
 12 13  2  0  0  0  0
 13 10  1  0  0  0  0
 13 14  1  0  0  0  0
 14 15  1  0  0  0  0
 15 21  2  0  0  0  0
 15 16  1  0  0  0  0
 16 18  1  0  0  0  0
 17 16  2  0  0  0  0
 18 19  1  0  0  0  0
 19 20  1  0  0  0  0
 22 21  1  0  0  0  0
 23 14  2  0  0  0  0
 23 22  1  0  0  0  0
 24 23  1  0  0  0  0
 25 24  1  0  0  0  0
 26 25  2  0  0  0  0
 27 26  1  0  0  0  0
 28 30  2  0  0  0  0
 28 26  1  0  0  0  0
 29 28  1  0  0  0  0
 30 31  1  0  0  0  0
 31 32  1  0  0  0  0
 31 24  2  0  0  0  0
M  END
>  <REMARK>
 800 SITE_DESCRIPTION: BINDING SITE FOR RESIDUE 2EQ A1224                 

>  <HET>
 2EQ  A1224      32                                                       

>  <HETNAM>
     2EQ 5-(5-CHLORO-2,4-DIHYDROXYPHENYL)-N-ETHYL-4-[4-                   
   2 2EQ  (MORPHOLIN-4-YLMETHYL)PHENYL]ISOXAZOLE-3-CARBOXAMIDE            

>  <FORMUL>
   2  2EQ    C23 H24 CL N3 O5                                             

$$$$
