@<TRIPOS>MOLECULE
0HK
   48    52     1     0     0
SMALL
bcc


@<TRIPOS>ATOM
      1 C1         -11.3580   -10.3660   -42.8570 c3      2000 0HK       0.087100
      2 N2         -11.3490    -8.9460   -42.8270 n4      2000 0HK      -0.617800
      3 C3         -12.0070    -8.4380   -41.7030 c3      2000 0HK       0.145500
      4 C4         -13.3640    -9.0190   -41.4780 c3      2000 0HK      -0.114400
      5 C5         -14.2310    -8.7870   -42.6860 c3      2000 0HK       0.130100
      6 C6         -13.5030    -8.8480   -44.0110 c3      2000 0HK      -0.114400
      7 C7         -12.1000    -8.3370   -43.8500 c3      2000 0HK       0.145500
      8 C8         -12.2680    -6.8770   -43.4480 cx      2000 0HK       0.060600
      9 C9         -12.2240    -6.9590   -41.9800 cx      2000 0HK       0.060600
     10 O10        -11.2350    -6.2350   -42.7090 op      2000 0HK      -0.367600
     11 O11        -14.7980    -7.5050   -42.5340 os      2000 0HK      -0.439900
     12 C12         -9.9480    -8.5620   -42.8820 c3      2000 0HK       0.087100
     13 C28        -15.9420    -7.1100   -43.2580 c       2000 0HK       0.615100
     14 O29        -16.5330    -7.8900   -43.9960 o       2000 0HK      -0.522000
     15 C30        -16.4420    -5.7050   -43.0490 c3      2000 0HK       0.327400
     16 C31        -16.4910    -5.4430   -41.5700 cc      2000 0HK      -0.204900
     17 C32        -15.4810    -4.7300   -43.6800 cc      2000 0HK      -0.204900
     18 O33        -17.6960    -5.6300   -43.6120 oh      2000 0HK      -0.574800
     19 C34        -16.1000    -6.2750   -40.5450 cd      2000 0HK      -0.150000
     20 C35        -16.2070    -5.8400   -39.2580 cd      2000 0HK      -0.165500
     21 C36        -16.6940    -4.5770   -39.0290 cc      2000 0HK      -0.184600
     22 S37        -17.0080    -3.9860   -40.6920 ss      2000 0HK       0.171700
     23 C41        -14.3370    -4.2190   -43.1210 cd      2000 0HK      -0.150000
     24 C42        -13.5840    -3.3370   -43.8190 cd      2000 0HK      -0.165500
     25 C43        -13.9890    -2.9620   -45.0750 cc      2000 0HK      -0.184600
     26 S44        -15.5050    -3.9110   -45.2650 ss      2000 0HK       0.171700
     27 H01        -12.1590   -10.7100   -43.5110 hx      2000 0HK       0.103700
     28 H02        -10.4010   -10.7280   -43.2340 hx      2000 0HK       0.103700
     29 H03        -11.5210   -10.7500   -41.8500 hx      2000 0HK       0.103700
     30 H04        -11.3990    -8.6690   -40.8280 hx      2000 0HK       0.125200
     31 H05        -13.8200    -8.5370   -40.6130 hc      2000 0HK       0.098450
     32 H06        -13.2730   -10.0900   -41.2980 hc      2000 0HK       0.098450
     33 H07        -14.9670    -9.5900   -42.7250 h1      2000 0HK       0.111700
     34 H08        -14.0290    -8.2270   -44.7370 hc      2000 0HK       0.098450
     35 H09        -13.4740    -9.8800   -44.3610 hc      2000 0HK       0.098450
     36 H10        -11.5630    -8.5320   -44.7780 hx      2000 0HK       0.125200
     37 H11        -12.8490    -6.4990   -44.2890 h1      2000 0HK       0.168700
     38 H12        -12.7710    -6.6810   -41.0790 h1      2000 0HK       0.168700
     39 H13         -9.3560    -9.4000   -43.2500 hx      2000 0HK       0.103700
     40 H14         -9.8300    -7.7120   -43.5540 hx      2000 0HK       0.103700
     41 H15         -9.6070    -8.2870   -41.8840 hx      2000 0HK       0.103700
     42 H16        -18.0380    -6.5160   -43.7530 ho      2000 0HK       0.439000
     43 H17        -15.7100    -7.2700   -40.7600 ha      2000 0HK       0.152500
     44 H18        -15.9120    -6.4820   -38.4280 ha      2000 0HK       0.162500
     45 H19        -16.8500    -4.0650   -38.0790 h4      2000 0HK       0.186000
     46 H20        -14.0360    -4.5220   -42.1180 ha      2000 0HK       0.152500
     47 H21        -12.6690    -2.9300   -43.3890 ha      2000 0HK       0.162500
     48 H22        -13.5170    -2.2710   -45.7730 h4      2000 0HK       0.186000
@<TRIPOS>BOND
     1     1     2 1   
     2     1    27 1   
     3     1    28 1   
     4     1    29 1   
     5     2     3 1   
     6     2     7 1   
     7     2    12 1   
     8     3     4 1   
     9     3     9 1   
    10     3    30 1   
    11     4     5 1   
    12     4    31 1   
    13     4    32 1   
    14     5     6 1   
    15     5    11 1   
    16     5    33 1   
    17     6     7 1   
    18     6    34 1   
    19     6    35 1   
    20     7     8 1   
    21     7    36 1   
    22     8     9 1   
    23     8    10 1   
    24     8    37 1   
    25     9    10 1   
    26     9    38 1   
    27    11    13 1   
    28    12    39 1   
    29    12    40 1   
    30    12    41 1   
    31    13    14 2   
    32    13    15 1   
    33    15    16 1   
    34    15    17 1   
    35    15    18 1   
    36    16    19 2   
    37    16    22 1   
    38    17    23 2   
    39    17    26 1   
    40    18    42 1   
    41    19    20 1   
    42    19    43 1   
    43    20    21 2   
    44    20    44 1   
    45    21    22 1   
    46    21    45 1   
    47    23    24 1   
    48    23    46 1   
    49    24    25 2   
    50    24    47 1   
    51    25    26 1   
    52    25    48 1   
@<TRIPOS>SUBSTRUCTURE
     1 0HK         1 TEMP              0 ****  ****    0 ROOT
