@<TRIPOS>MOLECULE
0HK
   48    52     1     0     0
SMALL
bcc


@<TRIPOS>ATOM
      1 H04        -14.0360    -4.5220   -42.1180 ha         0 0HK       0.204000
      2 H11        -11.3990    -8.6690   -40.8280 hx         0 0HK       0.031200
      3 H02        -15.9120    -6.4820   -38.4280 ha         0 0HK       0.150500
      4 H01        -15.7100    -7.2700   -40.7600 ha         0 0HK       0.204000
      5 H22         -9.6070    -8.2870   -41.8840 hx         0 0HK       0.025867
      6 H09        -10.4010   -10.7280   -43.2340 hx         0 0HK       0.025867
      7 H07        -18.0380    -6.5160   -43.7530 ho         0 0HK       0.438000
      8 H06        -13.5170    -2.2710   -45.7730 h4         0 0HK       0.156500
      9 H13        -13.2730   -10.0900   -41.2980 hc         0 0HK       0.022200
     10 H05        -12.6690    -2.9300   -43.3890 ha         0 0HK       0.150500
     11 H03        -16.8500    -4.0650   -38.0790 h4         0 0HK       0.156500
     12 H10        -11.5210   -10.7500   -41.8500 hx         0 0HK       0.025867
     13 H21         -9.8300    -7.7120   -43.5540 hx         0 0HK       0.025867
     14 H12        -13.8200    -8.5370   -40.6130 hc         0 0HK       0.022200
     15 H16        -13.4740    -9.8800   -44.3610 hc         0 0HK       0.022200
     16 H15        -14.0290    -8.2270   -44.7370 hc         0 0HK       0.022200
     17 H14        -14.9670    -9.5900   -42.7250 h1         0 0HK       0.037700
     18 H17        -11.5630    -8.5320   -44.7780 hx         0 0HK       0.031200
     19 H20         -9.3560    -9.4000   -43.2500 hx         0 0HK       0.025867
     20 H19        -12.7710    -6.6810   -41.0790 h1         0 0HK       0.017200
     21 H18        -12.8490    -6.4990   -44.2890 h1         0 0HK       0.017200
     22 H08        -12.1590   -10.7100   -43.5110 hx         0 0HK       0.025867
     23 C          -15.9420    -7.1100   -43.2580 c          0 0HK       0.628100
     24 O          -16.5330    -7.8900   -43.9960 o          0 0HK      -0.579000
     25 C1         -16.4910    -5.4430   -41.5700 cc         0 0HK      -0.125900
     26 C2         -15.4810    -4.7300   -43.6800 cc         0 0HK      -0.125900
     27 C3         -16.1000    -6.2750   -40.5450 cd         0 0HK      -0.120000
     28 C4         -16.2070    -5.8400   -39.2580 cd         0 0HK      -0.157000
     29 C5         -16.6940    -4.5770   -39.0290 cc         0 0HK      -0.190600
     30 C6         -14.3370    -4.2190   -43.1210 cd         0 0HK      -0.120000
     31 C7         -13.5840    -3.3370   -43.8190 cd         0 0HK      -0.157000
     32 C8         -13.9890    -2.9620   -45.0750 cc         0 0HK      -0.190600
     33 O1         -11.2350    -6.2350   -42.7090 op         0 0HK      -0.496600
     34 O2         -14.7980    -7.5050   -42.5340 os         0 0HK      -0.420900
     35 O3         -17.6960    -5.6300   -43.6120 oh         0 0HK      -0.613800
     36 S          -17.0080    -3.9860   -40.6920 ss         0 0HK       0.020700
     37 S1         -15.5050    -3.9110   -45.2650 ss         0 0HK       0.020700
     38 C9         -11.3580   -10.3660   -42.8570 c3         0 0HK       0.154600
     39 C10        -12.0070    -8.4380   -41.7030 c3         0 0HK      -0.147000
     40 C11        -13.3640    -9.0190   -41.4780 c3         0 0HK       0.016100
     41 C12        -14.2310    -8.7870   -42.6860 c3         0 0HK       0.141100
     42 C13        -13.5030    -8.8480   -44.0110 c3         0 0HK       0.016100
     43 C14        -12.1000    -8.3370   -43.8500 c3         0 0HK      -0.147000
     44 C15        -12.2680    -6.8770   -43.4480 cx         0 0HK       0.108100
     45 C16        -12.2240    -6.9590   -41.9800 cx         0 0HK       0.108100
     46 C17         -9.9480    -8.5620   -42.8820 c3         0 0HK       0.154600
     47 C18        -16.4420    -5.7050   -43.0490 c3         0 0HK       0.278400
     48 N          -11.3490    -8.9460   -42.8270 n4         0 0HK      -0.890800
@<TRIPOS>BOND
     1     1    30 1   
     2     2    39 1   
     3     3    28 1   
     4     4    27 1   
     5     5    46 1   
     6     6    38 1   
     7     7    35 1   
     8     8    32 1   
     9     9    40 1   
    10    10    31 1   
    11    11    29 1   
    12    12    38 1   
    13    13    46 1   
    14    14    40 1   
    15    15    42 1   
    16    16    42 1   
    17    17    41 1   
    18    18    43 1   
    19    19    46 1   
    20    20    45 1   
    21    21    44 1   
    22    22    38 1   
    23    23    24 2   
    24    23    34 1   
    25    23    47 1   
    26    25    27 2   
    27    25    36 1   
    28    25    47 1   
    29    26    30 2   
    30    26    37 1   
    31    26    47 1   
    32    27    28 1   
    33    28    29 2   
    34    29    36 1   
    35    30    31 1   
    36    31    32 2   
    37    32    37 1   
    38    33    44 1   
    39    33    45 1   
    40    34    41 1   
    41    35    47 1   
    42    38    48 1   
    43    39    40 1   
    44    39    45 1   
    45    39    48 1   
    46    40    41 1   
    47    41    42 1   
    48    42    43 1   
    49    43    44 1   
    50    43    48 1   
    51    44    45 1   
    52    46    48 1   
@<TRIPOS>SUBSTRUCTURE
     1 0HK         1 TEMP              0 ****  ****    0 ROOT
