@<TRIPOS>MOLECULE
TCL
   24    25     1     0     0
SMALL
bcc


@<TRIPOS>ATOM
      1 CL14         7.4600    16.1030     9.6190 cl      1302 TCL      -0.079400
      2 CL15        17.6770    15.8050    10.0020 cl      1302 TCL      -0.087400
      3 CL16        14.7870    13.6890    14.0440 cl      1302 TCL      -0.061400
      4 C1           9.5330    14.4730    10.2190 ca      1302 TCL      -0.210000
      5 C2           8.9140    15.6900    10.4960 ca      1302 TCL       0.058400
      6 C3           9.4120    16.5760    11.4380 ca      1302 TCL      -0.155000
      7 C4          10.5420    16.1580    12.1660 ca      1302 TCL      -0.087000
      8 C5          11.2180    14.9930    11.8840 ca      1302 TCL       0.046100
      9 C6          10.7180    14.1640    10.9030 ca      1302 TCL       0.138100
     10 O7          12.4010    14.6390    12.4900 os      1302 TCL      -0.219200
     11 C8          13.6610    14.8700    11.9010 ca      1302 TCL       0.134100
     12 C9          14.8280    14.4830    12.4920 ca      1302 TCL       0.001400
     13 C10         16.0760    14.7600    11.9310 ca      1302 TCL      -0.097000
     14 C11         16.1130    15.4470    10.7060 ca      1302 TCL      -0.007600
     15 C12         14.9760    15.8650    10.0720 ca      1302 TCL      -0.092000
     16 C13         13.7490    15.5650    10.7100 ca      1302 TCL      -0.174000
     17 O17         11.3750    12.9590    10.6220 oh      1302 TCL      -0.472100
     18 H01          9.1090    13.7810     9.4920 ha      1302 TCL       0.154000
     19 H02          8.9510    17.5490    11.6070 ha      1302 TCL       0.156000
     20 H03         10.8960    16.7820    12.9860 ha      1302 TCL       0.160000
     21 H04         16.9950    14.4520    12.4290 ha      1302 TCL       0.163000
     22 H05         15.0130    16.4020     9.1240 ha      1302 TCL       0.152000
     23 H06         12.8250    15.9000    10.2370 ha      1302 TCL       0.153000
     24 H07         11.5050    12.8780     9.6740 ho      1302 TCL       0.426000
@<TRIPOS>BOND
     1     1     5 1   
     2     2    14 1   
     3     3    12 1   
     4     4     5 ar  
     5     4     9 ar  
     6     4    18 1   
     7     5     6 ar  
     8     6     7 ar  
     9     6    19 1   
    10     7     8 ar  
    11     7    20 1   
    12     8     9 ar  
    13     8    10 1   
    14     9    17 1   
    15    10    11 1   
    16    11    12 ar  
    17    11    16 ar  
    18    12    13 ar  
    19    13    14 ar  
    20    13    21 1   
    21    14    15 ar  
    22    15    16 ar  
    23    15    22 1   
    24    16    23 1   
    25    17    24 1   
@<TRIPOS>SUBSTRUCTURE
     1 TCL         1 TEMP              0 ****  ****    0 ROOT
