@<TRIPOS>MOLECULE
TCL
   24    25     1     0     0
SMALL
bcc


@<TRIPOS>ATOM
      1 H05         15.0130    16.4020     9.1240 ha         0 TCL       0.152000
      2 H02         10.8960    16.7820    12.9860 ha         0 TCL       0.160000
      3 H07         11.5050    12.8780     9.6740 ho         0 TCL       0.426000
      4 H01          9.1090    13.7810     9.4920 ha         0 TCL       0.154000
      5 H06         12.8250    15.9000    10.2370 ha         0 TCL       0.153000
      6 H03          8.9510    17.5490    11.6070 ha         0 TCL       0.156000
      7 H04         16.9950    14.4520    12.4290 ha         0 TCL       0.163000
      8 C            9.5330    14.4730    10.2190 ca         0 TCL      -0.210000
      9 C1           8.9140    15.6900    10.4960 ca         0 TCL       0.058400
     10 C2          10.7180    14.1640    10.9030 ca         0 TCL       0.138100
     11 C3          11.2180    14.9930    11.8840 ca         0 TCL       0.046100
     12 C4          10.5420    16.1580    12.1660 ca         0 TCL      -0.087000
     13 C5           9.4120    16.5760    11.4380 ca         0 TCL      -0.155000
     14 C6          16.1130    15.4470    10.7060 ca         0 TCL      -0.007600
     15 C7          16.0760    14.7600    11.9310 ca         0 TCL      -0.097000
     16 C8          14.8280    14.4830    12.4920 ca         0 TCL       0.001400
     17 C9          13.6610    14.8700    11.9010 ca         0 TCL       0.134100
     18 C10         14.9760    15.8650    10.0720 ca         0 TCL      -0.092000
     19 C11         13.7490    15.5650    10.7100 ca         0 TCL      -0.174000
     20 O           12.4010    14.6390    12.4900 os         0 TCL      -0.219200
     21 Cl           7.4600    16.1030     9.6190 cl         0 TCL      -0.079400
     22 Cl1         17.6770    15.8050    10.0020 cl         0 TCL      -0.087400
     23 Cl2         14.7870    13.6890    14.0440 cl         0 TCL      -0.061400
     24 O1          11.3750    12.9590    10.6220 oh         0 TCL      -0.472100
@<TRIPOS>BOND
     1     1    18 1   
     2     2    12 1   
     3     3    24 1   
     4     4     8 1   
     5     5    19 1   
     6     6    13 1   
     7     7    15 1   
     8     8     9 ar  
     9     8    10 ar  
    10     9    13 ar  
    11     9    21 1   
    12    10    11 ar  
    13    10    24 1   
    14    11    12 ar  
    15    11    20 1   
    16    12    13 ar  
    17    14    15 ar  
    18    14    18 ar  
    19    14    22 1   
    20    15    16 ar  
    21    16    17 ar  
    22    16    23 1   
    23    17    19 ar  
    24    17    20 1   
    25    18    19 ar  
@<TRIPOS>SUBSTRUCTURE
     1 TCL         1 TEMP              0 ****  ****    0 ROOT
