@<TRIPOS>MOLECULE
73Z
   59    62     1     0     0
SMALL
bcc


@<TRIPOS>ATOM
      1 C1          26.0700    24.6200    14.3060 c3      4000 73Z      -0.174400
      2 C2          27.3340    25.4900    14.3860 c3      4000 73Z      -0.039000
      3 C3          28.4680    24.7530    13.6620 c3      4000 73Z      -0.017100
      4 C4          25.6720    24.1990    12.9100 c       4000 73Z       0.613700
      5 C5          26.7470    23.9310    11.9520 cc      4000 73Z      -0.240600
      6 C6          28.0540    24.1750    12.3450 cd      4000 73Z      -0.038600
      7 N7          28.8950    23.8930    11.2720 na      4000 73Z       0.008800
      8 C8          28.1020    23.4780    10.2160 cd      4000 73Z      -0.176300
      9 C9          26.7870    23.4840    10.5860 cc      4000 73Z      -0.064300
     10 O10         24.4910    24.1970    12.5710 o       4000 73Z      -0.550100
     11 C11         27.0790    26.8470    13.7220 c3      4000 73Z      -0.092100
     12 C12         27.7250    25.7170    15.8460 c3      4000 73Z      -0.092100
     13 C13         25.6190    23.0930     9.6960 c3      4000 73Z      -0.039800
     14 C14         30.3140    24.1190    11.1760 ca      4000 73Z       0.071800
     15 C15         31.1680    23.6770    12.1790 ca      4000 73Z      -0.204000
     16 C16         32.5160    23.9870    12.1210 ca      4000 73Z      -0.049000
     17 C17         33.0390    24.7190    11.0500 ca      4000 73Z      -0.223600
     18 C18         32.1740    25.1610    10.0220 ca      4000 73Z       0.239600
     19 C19         30.8130    24.8510    10.0960 ca      4000 73Z      -0.227000
     20 C20         34.5030    25.0400    11.0330 c       4000 73Z       0.683700
     21 N21         32.6690    25.9180     8.9610 nh      4000 73Z      -0.736600
     22 C22         31.8840    26.4330     7.8380 c3      4000 73Z       0.203500
     23 C23         31.4570    27.8640     8.1100 c3      4000 73Z      -0.092900
     24 C24         30.6460    28.4470     6.9520 c3      4000 73Z      -0.180900
     25 C25         31.3250    28.2750     5.6220 c       4000 73Z       0.567100
     26 C26         31.9100    26.9150     5.3500 c3      4000 73Z      -0.180900
     27 C27         32.6860    26.3490     6.5420 c3      4000 73Z      -0.092900
     28 O28         31.3640    29.1670     4.8040 o       4000 73Z      -0.523100
     29 N29         35.3470    24.1620    11.5800 n       4000 73Z      -0.667000
     30 O30         34.8880    26.0960    10.5240 o       4000 73Z      -0.632100
     31 H01         25.2530    25.2350    14.6830 hc      4000 73Z       0.071700
     32 H02         26.2410    23.7190    14.8960 hc      4000 73Z       0.071700
     33 H03         28.7690    23.9210    14.2980 hc      4000 73Z       0.060700
     34 H04         29.2840    25.4550    13.4910 hc      4000 73Z       0.060700
     35 H05         28.4730    23.1890     9.2330 h4      4000 73Z       0.173000
     36 H06         26.2190    27.3250    14.1920 hc      4000 73Z       0.040700
     37 H07         27.9570    27.4810    13.8420 hc      4000 73Z       0.040700
     38 H08         26.8780    26.7010    12.6610 hc      4000 73Z       0.040700
     39 H09         28.5640    26.4120    15.8930 hc      4000 73Z       0.040700
     40 H10         26.8770    26.1350    16.3890 hc      4000 73Z       0.040700
     41 H11         28.0140    24.7680    16.2970 hc      4000 73Z       0.040700
     42 H12         24.8020    23.8010     9.8370 hc      4000 73Z       0.053033
     43 H13         25.9350    23.1080     8.6530 hc      4000 73Z       0.053033
     44 H14         25.2800    22.0910     9.9590 hc      4000 73Z       0.053033
     45 H15         30.7780    23.0880    13.0090 ha      4000 73Z       0.149000
     46 H16         33.1790    23.6560    12.9210 ha      4000 73Z       0.140000
     47 H17         30.1380    25.1820     9.3070 ha      4000 73Z       0.151000
     48 H18         33.6570    26.1300     8.9680 hn      4000 73Z       0.440800
     49 H19         30.9900    25.8190     7.7270 h1      4000 73Z       0.059700
     50 H20         32.3570    28.4680     8.2300 hc      4000 73Z       0.060450
     51 H21         30.8480    27.8850     9.0140 hc      4000 73Z       0.060450
     52 H22         30.5410    29.5170     7.1310 hc      4000 73Z       0.073450
     53 H23         29.6780    27.9470     6.9170 hc      4000 73Z       0.073450
     54 H24         32.6130    27.0220     4.5240 hc      4000 73Z       0.073450
     55 H25         31.0990    26.2290     5.1060 hc      4000 73Z       0.073450
     56 H26         32.8920    25.2980     6.3410 hc      4000 73Z       0.060450
     57 H27         33.6100    26.9150     6.6620 hc      4000 73Z       0.060450
     58 H28         36.3390    24.3510    11.5850 hn      4000 73Z       0.315500
     59 H29         34.9930    23.3090    11.9890 hn      4000 73Z       0.315500
@<TRIPOS>BOND
     1     1     2 1   
     2     1     4 1   
     3     1    31 1   
     4     1    32 1   
     5     2     3 1   
     6     2    11 1   
     7     2    12 1   
     8     3     6 1   
     9     3    33 1   
    10     3    34 1   
    11     4     5 1   
    12     4    10 2   
    13     5     6 2   
    14     5     9 1   
    15     6     7 1   
    16     7     8 1   
    17     7    14 1   
    18     8     9 2   
    19     8    35 1   
    20     9    13 1   
    21    11    36 1   
    22    11    37 1   
    23    11    38 1   
    24    12    39 1   
    25    12    40 1   
    26    12    41 1   
    27    13    42 1   
    28    13    43 1   
    29    13    44 1   
    30    14    15 ar  
    31    14    19 ar  
    32    15    16 ar  
    33    15    45 1   
    34    16    17 ar  
    35    16    46 1   
    36    17    18 ar  
    37    17    20 1   
    38    18    19 ar  
    39    18    21 1   
    40    19    47 1   
    41    20    29 1   
    42    20    30 2   
    43    21    22 1   
    44    21    48 1   
    45    22    23 1   
    46    22    27 1   
    47    22    49 1   
    48    23    24 1   
    49    23    50 1   
    50    23    51 1   
    51    24    25 1   
    52    24    52 1   
    53    24    53 1   
    54    25    26 1   
    55    25    28 2   
    56    26    27 1   
    57    26    54 1   
    58    26    55 1   
    59    27    56 1   
    60    27    57 1   
    61    29    58 1   
    62    29    59 1   
@<TRIPOS>SUBSTRUCTURE
     1 73Z         1 TEMP              0 ****  ****    0 ROOT
