/web/media/ligands/2UWD_ligand.pdb
 OpenBabel04242009293D

 27 29  0  0  0  0  0  0  0  0999 V2000
   35.1100    5.6100   21.6240 C   0  0  0  0  0  0  0  0  0  0  0  0
   35.4350    6.2380   22.9030 O   0  0  0  0  0  0  0  0  0  0  0  0
   34.4180    6.7760   23.6490 C   0  0  0  0  0  0  0  0  0  0  0  0
   33.0590    6.7530   23.2680 C   0  0  0  0  0  0  0  0  0  0  0  0
   32.0940    7.3320   24.1290 C   0  0  0  0  0  0  0  0  0  0  0  0
   34.7730    7.3510   24.8900 C   0  0  0  0  0  0  0  0  0  0  0  0
   33.8030    7.9190   25.7240 C   0  0  0  0  0  0  0  0  0  0  0  0
   32.4480    7.9140   25.3780 C   0  0  0  0  0  0  0  0  0  0  0  0
   31.4680    8.5170   26.2370 C   0  0  0  0  0  0  0  0  0  0  0  0
   31.0410    8.0900   27.5120 C   0  0  0  0  0  0  0  0  0  0  0  0
   31.5650    6.9080   28.2960 C   0  0  0  0  0  0  0  0  0  0  0  0
   32.0520    5.9280   27.7380 O   0  0  0  0  0  0  0  0  0  0  0  0
   31.5370    7.0580   29.6330 N   0  0  0  0  0  0  0  0  0  0  0  0
   32.0110    5.9860   30.5390 C   0  0  0  0  0  0  0  0  0  0  0  0
   33.4920    6.2160   30.8900 C   0  0  0  0  0  0  0  0  0  0  0  0
   30.0930    8.8920   28.0040 N   0  0  0  0  0  0  0  0  0  0  0  0
   30.7040    9.6700   25.9840 C   0  0  0  0  0  0  0  0  0  0  0  0
   30.7220   10.4920   24.8390 C   0  0  0  0  0  0  0  0  0  0  0  0
   31.9450   11.0010   24.3910 C   0  0  0  0  0  0  0  0  0  0  0  0
   32.0160   11.8130   23.2580 C   0  0  0  0  0  0  0  0  0  0  0  0
   33.5480   12.4520   22.7020 Cl  0  0  0  0  0  0  0  0  0  0  0  0
   30.8300   12.1310   22.5810 C   0  0  0  0  0  0  0  0  0  0  0  0
   30.8780   12.8740   21.4710 O   0  0  0  0  0  0  0  0  0  0  0  0
   29.5990   11.6240   23.0020 C   0  0  0  0  0  0  0  0  0  0  0  0
   29.5450   10.8400   24.1630 C   0  0  0  0  0  0  0  0  0  0  0  0
   28.3380   10.3530   24.5620 O   0  0  0  0  0  0  0  0  0  0  0  0
   29.8850    9.8740   27.0470 O   0  0  0  0  0  0  0  0  0  0  0  0
  1  2  1  0  0  0  0
  2  3  1  0  0  0  0
  3  6  1  0  0  0  0
  4  3  2  0  0  0  0
  4  5  1  0  0  0  0
  5  8  2  0  0  0  0
  6  7  2  0  0  0  0
  8  7  1  0  0  0  0
  8  9  1  0  0  0  0
  9 10  1  0  0  0  0
 10 16  2  0  0  0  0
 10 11  1  0  0  0  0
 11 13  1  0  0  0  0
 12 11  2  0  0  0  0
 13 14  1  0  0  0  0
 14 15  1  0  0  0  0
 17  9  2  0  0  0  0
 17 27  1  0  0  0  0
 18 17  1  0  0  0  0
 19 18  1  0  0  0  0
 20 19  2  0  0  0  0
 21 20  1  0  0  0  0
 22 24  2  0  0  0  0
 22 20  1  0  0  0  0
 23 22  1  0  0  0  0
 24 25  1  0  0  0  0
 25 26  1  0  0  0  0
 25 18  2  0  0  0  0
 27 16  1  0  0  0  0
M  END
>  <REMARK>
 800 SITE_DESCRIPTION: BINDING SITE FOR RESIDUE 2GG A1228                 

>  <HET>
 2GG  A1228      27                                                       

>  <HETNAM>
     2GG 5-(5-CHLORO-2,4-DIHYDROXYPHENYL)-N-ETHYL-4-(4-                   
   2 2GG  METHOXYPHENYL)ISOXAZOLE-3-CARBOXAMIDE                           

>  <FORMUL>
   5  2GG    C19 H17 CL N2 O5                                             

$$$$
