REMARK  Name = /web/media/ligands/2UWD_ligand.pdb
REMARK  5 active torsions:
REMARK  status: ('A' for Active; 'I' for Inactive)
REMARK    1  A    between atoms: O_2  and  C_3
REMARK    2  A    between atoms: C_8  and  C_9
REMARK    3  A    between atoms: C_10  and  C_11
REMARK    4  A    between atoms: N_13  and  C_14
REMARK    5  A    between atoms: C_17  and  C_18
REMARK                            x       y       z     vdW  Elec       q    Type
REMARK                         _______ _______ _______ _____ _____    ______ ____
ROOT
ATOM      1  C   UNL     1      31.468   8.517  26.237  0.00  0.00    +0.063 A 
ATOM      2  C   UNL     1      30.704   9.670  25.984  0.00  0.00    +0.180 A 
ATOM      3  O   UNL     1      29.885   9.874  27.047  0.00  0.00    -0.353 OA
ATOM      4  N   UNL     1      30.093   8.892  28.004  0.00  0.00    -0.072 NA
ATOM      5  C   UNL     1      31.041   8.090  27.512  0.00  0.00    +0.178 A 
ENDROOT
BRANCH   2   6
ATOM      6  C   UNL     1      30.722  10.492  24.839  0.00  0.00    +0.077 A 
ATOM      7  C   UNL     1      29.545  10.840  24.163  0.00  0.00    +0.202 A 
ATOM      8  O   UNL     1      28.338  10.353  24.562  0.00  0.00    -0.286 OA
ATOM      9  C   UNL     1      29.599  11.624  23.002  0.00  0.00    +0.085 A 
ATOM     10  C   UNL     1      30.830  12.131  22.581  0.00  0.00    +0.209 A 
ATOM     11  O   UNL     1      30.878  12.874  21.471  0.00  0.00    -0.286 OA
ATOM     12  C   UNL     1      32.016  11.813  23.258  0.00  0.00    +0.097 A 
ATOM     13 CL   UNL     1      33.548  12.452  22.702  0.00  0.00    -0.079 Cl
ATOM     14  C   UNL     1      31.945  11.001  24.391  0.00  0.00    +0.021 A 
ENDBRANCH   2   6
BRANCH   1  18
ATOM     15  C   UNL     1      34.418   6.776  23.649  0.00  0.00    +0.139 A 
ATOM     16  C   UNL     1      33.059   6.753  23.268  0.00  0.00    +0.037 A 
ATOM     17  C   UNL     1      32.094   7.332  24.129  0.00  0.00    +0.003 A 
ATOM     18  C   UNL     1      32.448   7.914  25.378  0.00  0.00    +0.005 A 
ATOM     19  C   UNL     1      33.803   7.919  25.724  0.00  0.00    +0.003 A 
ATOM     20  C   UNL     1      34.773   7.351  24.890  0.00  0.00    +0.037 A 
BRANCH  15  22
ATOM     21  C   UNL     1      35.110   5.610  21.624  0.00  0.00    +0.252 C 
ATOM     22  O   UNL     1      35.435   6.238  22.903  0.00  0.00    -0.471 OA
ENDBRANCH  15  22
ENDBRANCH   1  18
BRANCH   5  23
ATOM     23  C   UNL     1      31.565   6.908  28.296  0.00  0.00    +0.286 C 
ATOM     24  O   UNL     1      32.052   5.928  27.738  0.00  0.00    -0.267 OA
ATOM     25  N   UNL     1      31.537   7.058  29.633  0.00  0.00    -0.200 NA
BRANCH  25  26
ATOM     26  C   UNL     1      32.011   5.986  30.539  0.00  0.00    +0.116 C 
ATOM     27  C   UNL     1      33.492   6.216  30.890  0.00  0.00    +0.025 C 
ENDBRANCH  25  26
ENDBRANCH   5  23
TORSDOF 5
