@<TRIPOS>MOLECULE
XTV
   41    44     1     0     0
SMALL
bcc


@<TRIPOS>ATOM
      1 CAC        -21.5590     5.4970   -10.4580 cg       302 XTV       0.249800
      2 CAD        -19.6320     8.5130   -11.4180 ca       302 XTV      -0.167000
      3 CAE        -18.6140     7.8780   -12.1280 ca       302 XTV      -0.075000
      4 CAF        -20.5950     7.6770   -10.8630 ca       302 XTV      -0.065000
      5 CAG        -18.5290     6.5030   -12.3890 ca       302 XTV      -0.195000
      6 CAH        -17.2450     2.4950   -14.1530 ca       302 XTV      -0.130000
      7 CAI        -18.3680     3.1390   -13.6460 ca       302 XTV      -0.097000
      8 CAJ        -16.0720     3.0950   -12.1450 ca       302 XTV      -0.198000
      9 CAK        -13.6200     3.8190   -14.9300 cc       302 XTV      -0.226600
     10 CAL        -11.4950     5.9030   -16.1500 cx       302 XTV      -0.127400
     11 CAM        -12.8470     6.5040   -16.4400 cx       302 XTV      -0.127400
     12 CAN        -14.9160     1.8450   -13.8960 c3       302 XTV       0.099600
     13 CAR        -17.2070     3.6950   -11.5980 ca       302 XTV       0.128100
     14 CAS        -16.0600     2.5040   -13.4050 ca       302 XTV      -0.079300
     15 CAT        -20.5180     6.2980   -11.0440 ca       302 XTV      -0.041000
     16 CAU        -13.2830     3.9930   -16.2210 cd       302 XTV       0.298600
     17 CAV        -18.3840     3.7170   -12.3910 ca       302 XTV       0.059100
     18 CAW        -19.4860     5.6960   -11.7850 ca       302 XTV       0.165100
     19 CAX        -12.5070     5.1070   -16.8960 cx       302 XTV      -0.141000
     20 NAA        -22.3110     4.9240   -10.0370 n1       302 XTV      -0.364800
     21 NAO        -13.7120     2.9770   -16.9250 nd       302 XTV      -0.346000
     22 NAP        -14.2550     2.1850   -16.1330 nc       302 XTV      -0.165800
     23 NAY        -14.2500     2.6390   -14.9380 na       302 XTV       0.043400
     24 OAB        -17.1910     4.3300   -10.3760 oh       302 XTV      -0.472100
     25 OAQ        -19.5380     4.3270   -11.9050 os       302 XTV      -0.224200
     26 H01        -19.6710     9.5960   -11.3050 ha       302 XTV       0.142000
     27 H02        -17.8120     8.5070   -12.5150 ha       302 XTV       0.140000
     28 H03        -21.4140     8.1030   -10.2840 ha       302 XTV       0.147000
     29 H04        -17.7530     6.0880   -13.0320 ha       302 XTV       0.151000
     30 H05        -17.2860     1.9900   -15.1180 ha       302 XTV       0.161000
     31 H06        -19.2670     3.1900   -14.2600 ha       302 XTV       0.160000
     32 H07        -15.1530     3.0890   -11.5590 ha       302 XTV       0.138000
     33 H08        -13.4270     4.4790   -14.0840 h4       302 XTV       0.188000
     34 H09        -10.9030     5.7420   -15.2490 hc       302 XTV       0.072700
     35 H10        -10.6100     6.2780   -16.6640 hc       302 XTV       0.072700
     36 H11        -13.2040     7.4130   -16.9240 hc       302 XTV       0.072700
     37 H12        -13.5630     6.6580   -15.6330 hc       302 XTV       0.072700
     38 H13        -14.2180     1.7060   -13.0700 h1       302 XTV       0.077700
     39 H14        -15.2120     0.8830   -14.3160 h1       302 XTV       0.077700
     40 H15        -12.4640     4.5590   -17.8370 hc       302 XTV       0.105700
     41 H16        -16.3110     4.2740    -9.9970 ho       302 XTV       0.423000
@<TRIPOS>BOND
     1     1    15 1   
     2     1    20 3   
     3     2     3 ar  
     4     2     4 ar  
     5     2    26 1   
     6     3     5 ar  
     7     3    27 1   
     8     4    15 ar  
     9     4    28 1   
    10     5    18 ar  
    11     5    29 1   
    12     6     7 ar  
    13     6    14 ar  
    14     6    30 1   
    15     7    17 ar  
    16     7    31 1   
    17     8    13 ar  
    18     8    14 ar  
    19     8    32 1   
    20     9    16 2   
    21     9    23 1   
    22     9    33 1   
    23    10    11 1   
    24    10    19 1   
    25    10    34 1   
    26    10    35 1   
    27    11    19 1   
    28    11    36 1   
    29    11    37 1   
    30    12    14 1   
    31    12    23 1   
    32    12    38 1   
    33    12    39 1   
    34    13    17 ar  
    35    13    24 1   
    36    15    18 ar  
    37    16    19 1   
    38    16    21 1   
    39    17    25 1   
    40    18    25 1   
    41    19    40 1   
    42    21    22 2   
    43    22    23 1   
    44    24    41 1   
@<TRIPOS>SUBSTRUCTURE
     1 XTV         1 TEMP              0 ****  ****    0 ROOT
