@<TRIPOS>MOLECULE
XTV
   41    44     1     0     0
SMALL
bcc


@<TRIPOS>ATOM
      1 H12        -12.4640     4.5590   -17.8370 hc         0 XTV       0.105700
      2 H09        -15.2260     0.8950   -14.3320 h1         0 XTV       0.077700
      3 H13        -10.4640     6.2040   -16.3370 hc         0 XTV       0.072700
      4 H14        -11.2290     5.6270   -15.1300 hc         0 XTV       0.072700
      5 H15        -13.6400     6.9540   -15.8430 hc         0 XTV       0.072700
      6 H04        -17.7530     6.0880   -13.0320 ha         0 XTV       0.151000
      7 H02        -19.6710     9.5960   -11.3050 ha         0 XTV       0.142000
      8 H01        -21.4140     8.1030   -10.2840 ha         0 XTV       0.147000
      9 H08        -17.2860     1.9900   -15.1180 ha         0 XTV       0.161000
     10 H05        -15.1530     3.0890   -11.5590 ha         0 XTV       0.138000
     11 H06        -16.3110     4.2740    -9.9970 ho         0 XTV       0.423000
     12 H03        -17.8120     8.5070   -12.5150 ha         0 XTV       0.140000
     13 H16        -12.9440     7.3100   -17.1670 hc         0 XTV       0.072700
     14 H07        -19.2670     3.1900   -14.2600 ha         0 XTV       0.160000
     15 H11        -13.4270     4.4790   -14.0840 h4         0 XTV       0.188000
     16 H10        -14.2190     1.6810   -13.0740 h1         0 XTV       0.077700
     17 N          -22.3110     4.9240   -10.0370 n1         0 XTV      -0.364800
     18 C          -21.5590     5.4970   -10.4580 cg         0 XTV       0.249800
     19 C1         -20.5180     6.2980   -11.0440 ca         0 XTV      -0.041000
     20 C2         -20.5950     7.6770   -10.8630 ca         0 XTV      -0.065000
     21 C3         -19.6320     8.5130   -11.4180 ca         0 XTV      -0.167000
     22 C4         -18.6140     7.8780   -12.1280 ca         0 XTV      -0.075000
     23 C5         -18.5290     6.5030   -12.3890 ca         0 XTV      -0.195000
     24 C6         -19.4860     5.6960   -11.7850 ca         0 XTV       0.165100
     25 O          -19.5380     4.3270   -11.9050 os         0 XTV      -0.224200
     26 C7         -18.3840     3.7170   -12.3910 ca         0 XTV       0.059100
     27 C8         -17.2070     3.6950   -11.5980 ca         0 XTV       0.128100
     28 C9         -16.0720     3.0950   -12.1450 ca         0 XTV      -0.198000
     29 O1         -17.1910     4.3300   -10.3760 oh         0 XTV      -0.472100
     30 C10        -18.3680     3.1390   -13.6460 ca         0 XTV      -0.097000
     31 C11        -17.2450     2.4950   -14.1530 ca         0 XTV      -0.130000
     32 C12        -16.0600     2.5040   -13.4050 ca         0 XTV      -0.079300
     33 C13        -14.9160     1.8450   -13.8960 c3         0 XTV       0.099600
     34 N1         -14.2500     2.6390   -14.9380 na         0 XTV       0.043400
     35 C14        -13.6200     3.8190   -14.9300 cc         0 XTV      -0.226600
     36 N2         -14.2550     2.1850   -16.1330 nc         0 XTV      -0.165800
     37 N3         -13.7120     2.9770   -16.9250 nd         0 XTV      -0.346000
     38 C15        -13.2830     3.9930   -16.2210 cd         0 XTV       0.298600
     39 C16        -12.5070     5.1070   -16.8960 cx         0 XTV      -0.141000
     40 C17        -11.4950     5.9030   -16.1500 cx         0 XTV      -0.127400
     41 C18        -12.8470     6.5040   -16.4400 cx         0 XTV      -0.127400
@<TRIPOS>BOND
     1     1    39 1   
     2     2    33 1   
     3     3    40 1   
     4     4    40 1   
     5     5    41 1   
     6     6    23 1   
     7     7    21 1   
     8     8    20 1   
     9     9    31 1   
    10    10    28 1   
    11    11    29 1   
    12    12    22 1   
    13    13    41 1   
    14    14    30 1   
    15    15    35 1   
    16    16    33 1   
    17    17    18 3   
    18    18    19 1   
    19    19    20 ar  
    20    19    24 ar  
    21    20    21 ar  
    22    21    22 ar  
    23    22    23 ar  
    24    23    24 ar  
    25    24    25 1   
    26    25    26 1   
    27    26    27 ar  
    28    26    30 ar  
    29    27    28 ar  
    30    27    29 1   
    31    28    32 ar  
    32    30    31 ar  
    33    31    32 ar  
    34    32    33 1   
    35    33    34 1   
    36    34    35 1   
    37    34    36 1   
    38    35    38 2   
    39    36    37 2   
    40    37    38 1   
    41    38    39 1   
    42    39    40 1   
    43    39    41 1   
    44    40    41 1   
@<TRIPOS>SUBSTRUCTURE
     1 XTV         1 TEMP              0 ****  ****    0 ROOT
