@<TRIPOS>MOLECULE
C4K
   51    55     1     0     0
SMALL
bcc


@<TRIPOS>ATOM
      1 C1          65.9090    34.2960    23.9020 ca       301 C4K      -0.203000
      2 C2          64.7780    34.1000    24.7420 ca       301 C4K       0.170000
      3 C3          64.9080    33.5380    26.0010 ca       301 C4K      -0.204000
      4 C4          67.1790    33.8990    24.3430 ca       301 C4K       0.024000
      5 O5          63.5500    34.4710    24.3080 oh       301 C4K      -0.268000
      6 C6          65.7210    34.9570    22.5870 c2       301 C4K       0.354000
      7 O7          65.0150    34.3920    21.7710 o        301 C4K      -0.441000
      8 C8          67.3160    33.3340    25.6170 ca       301 C4K      -0.172000
      9 C9          66.1770    33.1460    26.4500 ca       301 C4K       0.027000
     10 N10         66.6250    32.5800    27.6160 na       301 C4K      -0.184000
     11 N11         68.0100    32.4060    27.5220 n2       301 C4K      -0.077000
     12 C12         68.4610    32.8390    26.3750 c2       301 C4K      -0.046000
     13 C13         69.8910    32.7790    25.8790 c3       301 C4K      -0.054000
     14 C14         70.7120    34.0280    26.1010 ca       301 C4K      -0.082000
     15 C15         70.2050    35.3060    25.8630 ca       301 C4K      -0.115000
     16 C16         72.3210    36.2790    26.4730 ca       301 C4K      -0.133000
     17 C17         72.8350    35.0050    26.7090 ca       301 C4K      -0.091000
     18 C18         71.0080    36.4310    26.0530 ca       301 C4K      -0.113000
     19 C19         72.0410    33.8840    26.5020 ca       301 C4K      -0.125000
     20 C20         74.2360    34.8500    27.2120 c3       301 C4K      -0.169000
     21 C21         69.1680    38.1250    23.4280 ca       301 C4K      -0.221000
     22 C22         68.3500    37.3000    22.6680 ca       301 C4K      -0.154000
     23 C23         67.0530    36.9730    23.1070 ca       301 C4K      -0.020000
     24 C24         66.5800    37.4960    24.3150 ca       301 C4K      -0.202000
     25 N25         66.2190    36.1950    22.2800 n        301 C4K      -0.258000
     26 C26         65.9490    36.7590    20.9520 c3       301 C4K      -0.069000
     27 C27         68.7050    38.6200    24.6450 ca       301 C4K       0.059000
     28 C28         67.4140    38.2900    25.0930 ca       301 C4K       0.054000
     29 O29         67.2060    38.8560    26.3100 os       301 C4K      -0.224000
     30 C30         68.4800    39.3890    26.7490 c2       301 C4K      -0.212000
     31 O31         69.3200    39.4170    25.5750 os       301 C4K      -0.230000
     32 H01         64.0330    33.4020    26.6360 ha       301 C4K       0.152000
     33 H02         68.0500    34.0290    23.7010 ha       301 C4K       0.166000
     34 H03         63.2190    33.8180    23.6870 ho       301 C4K       0.257000
     35 H04         66.0520    32.3310    28.4090 hn       301 C4K       0.241000
     36 H05         69.8260    32.6530    24.7980 hc       301 C4K       0.099000
     37 H06         70.3890    31.9540    26.3890 hc       301 C4K       0.099000
     38 H07         69.1750    35.4260    25.5270 ha       301 C4K       0.158000
     39 H08         72.9510    37.1560    26.6190 ha       301 C4K       0.124000
     40 H09         70.6040    37.4270    25.8720 ha       301 C4K       0.174000
     41 H10         72.4580    32.8880    26.6530 ha       301 C4K       0.124000
     42 H11         74.8610    35.6390    26.7940 hc       301 C4K       0.073000
     43 H12         74.2420    34.9200    28.3000 hc       301 C4K       0.073000
     44 H13         74.6270    33.8790    26.9080 hc       301 C4K       0.073000
     45 H14         70.1660    38.3840    23.0750 ha       301 C4K       0.130000
     46 H15         68.7160    36.9010    21.7220 ha       301 C4K       0.112000
     47 H16         65.5630    37.2820    24.6440 ha       301 C4K       0.136000
     48 H17         65.1620    37.5090    21.0300 h1       301 C4K       0.081667
     49 H18         66.8550    37.2230    20.5630 h1       301 C4K       0.081667
     50 H19         65.6280    35.9650    20.2780 h1       301 C4K       0.081667
     51 H20         68.7490    39.7040    27.7570 h5       301 C4K      -0.059000
@<TRIPOS>BOND
     1     1     2 1   
     2     1     4 1   
     3     1     6 1   
     4     2     3 1   
     5     2     5 1   
     6     3     9 1   
     7     3    32 1   
     8     4     8 1   
     9     4    33 1   
    10     5    34 1   
    11     6     7 1   
    12     6    25 1   
    13     8     9 1   
    14     8    12 1   
    15     9    10 1   
    16    10    11 1   
    17    10    35 1   
    18    11    12 1   
    19    12    13 1   
    20    13    14 1   
    21    13    36 1   
    22    13    37 1   
    23    14    15 1   
    24    14    19 1   
    25    15    18 1   
    26    15    38 1   
    27    16    17 1   
    28    16    18 1   
    29    16    39 1   
    30    17    19 1   
    31    17    20 1   
    32    18    40 1   
    33    19    41 1   
    34    20    42 1   
    35    20    43 1   
    36    20    44 1   
    37    21    22 1   
    38    21    27 1   
    39    21    45 1   
    40    22    23 1   
    41    22    46 1   
    42    23    24 1   
    43    23    25 1   
    44    24    28 1   
    45    24    47 1   
    46    25    26 1   
    47    26    48 1   
    48    26    49 1   
    49    26    50 1   
    50    27    28 1   
    51    27    31 1   
    52    28    29 1   
    53    29    30 1   
    54    30    31 1   
    55    30    51 1   
@<TRIPOS>SUBSTRUCTURE
     1 C4K         1 TEMP              0 ****  ****    0 ROOT
