@<TRIPOS>MOLECULE
C4K
   52    56     1     0     0
SMALL
bcc


@<TRIPOS>ATOM
      1 C1          65.9470    34.3770    23.9460 ca       301 C4K      -0.247600
      2 C2          64.7540    34.0340    24.6450 ca       301 C4K       0.213100
      3 C3          64.8000    33.3560    25.8530 ca       301 C4K      -0.197000
      4 C4          67.1920    34.0500    24.5150 ca       301 C4K       0.017000
      5 O5          63.5460    34.3180    24.0970 oh       301 C4K      -0.505100
      6 C6          65.8370    35.1520    22.6750 c        301 C4K       0.689700
      7 O7          65.0860    34.7120    21.8150 o        301 C4K      -0.623100
      8 C8          67.2470    33.4330    25.7700 ca       301 C4K      -0.254900
      9 C9          66.0430    33.0690    26.4340 ca       301 C4K       0.002800
     10 N10         66.4080    32.4750    27.6110 na       301 C4K      -0.017100
     11 N11         67.7960    32.4850    27.7140 nc       301 C4K      -0.515100
     12 C12         68.3350    32.9760    26.6340 cd       301 C4K       0.377900
     13 C13         69.8190    33.1860    26.4500 c3       301 C4K      -0.043400
     14 C14         70.4980    32.5730    25.2550 ca       301 C4K      -0.079300
     15 C15         70.9100    33.4260    24.2440 ca       301 C4K      -0.127000
     16 C16         71.9900    31.6010    23.0750 ca       301 C4K      -0.128000
     17 C17         71.6190    30.7600    24.1040 ca       301 C4K      -0.077300
     18 C18         71.6350    32.9290    23.1610 ca       301 C4K      -0.128000
     19 C19         70.8720    31.2240    25.2020 ca       301 C4K      -0.114000
     20 C20         71.9870    29.3250    23.9660 c3       301 C4K      -0.053800
     21 C21         69.6250    37.3410    24.1460 ca       301 C4K      -0.107000
     22 C22         68.7190    36.8780    23.2000 ca       301 C4K      -0.144000
     23 C23         67.3340    36.9210    23.4500 ca       301 C4K       0.039600
     24 C24         66.8610    37.4540    24.6580 ca       301 C4K      -0.118000
     25 N25         66.4460    36.3760    22.4970 n        301 C4K      -0.388000
     26 C26         66.2930    37.1140    21.2320 c3       301 C4K       0.081300
     27 C27         69.1500    37.8530    25.3550 ca       301 C4K       0.056100
     28 C28         67.7700    37.8970    25.6130 ca       301 C4K       0.067100
     29 O29         67.5810    38.4400    26.8470 os       301 C4K      -0.328900
     30 C30         68.8160    39.1130    27.1700 c3       301 C4K       0.320200
     31 O31         69.8110    38.3760    26.4330 os       301 C4K      -0.330900
     32 H01         63.8780    33.0490    26.3470 ha       301 C4K       0.163000
     33 H02         68.1130    34.2770    23.9780 ha       301 C4K       0.150000
     34 H03         63.2130    33.5440    23.6360 ho       301 C4K       0.456000
     35 H04         65.7720    32.0910    28.2950 hn       301 C4K       0.319700
     36 H05         70.2640    32.6670    27.2990 hc       301 C4K       0.063700
     37 H06         69.9860    34.2620    26.3970 hc       301 C4K       0.063700
     38 H07         70.6670    34.4870    24.2950 ha       301 C4K       0.128000
     39 H08         72.5490    31.2250    22.2180 ha       301 C4K       0.131000
     40 H09         71.9280    33.6100    22.3620 ha       301 C4K       0.130000
     41 H10         70.5870    30.5410    26.0030 ha       301 C4K       0.142000
     42 H11         72.9490    29.1490    24.4480 hc       301 C4K       0.044367
     43 H12         71.2250    28.7070    24.4410 hc       301 C4K       0.044367
     44 H13         72.0580    29.0680    22.9090 hc       301 C4K       0.044367
     45 H14         70.6960    37.3050    23.9460 ha       301 C4K       0.160000
     46 H15         69.0840    36.4770    22.2540 ha       301 C4K       0.147000
     47 H16         65.7900    37.5210    24.8470 ha       301 C4K       0.167000
     48 H17         65.6420    37.9740    21.3900 h1       301 C4K       0.051367
     49 H18         67.2700    37.4560    20.8900 h1       301 C4K       0.051367
     50 H19         65.8520    36.4600    20.4800 h1       301 C4K       0.051367
     51 H20         69.0160    39.1360    28.2410 h2       301 C4K       0.076200
     52 H21         68.7870    40.1550    26.8500 h2       301 C4K       0.076200
@<TRIPOS>BOND
     1     1     2 ar  
     2     1     4 ar  
     3     1     6 1   
     4     2     3 ar  
     5     2     5 1   
     6     3     9 ar  
     7     3    32 1   
     8     4     8 ar  
     9     4    33 1   
    10     5    34 1   
    11     6     7 2   
    12     6    25 1   
    13     8     9 ar  
    14     8    12 1   
    15     9    10 1   
    16    10    11 1   
    17    10    35 1   
    18    11    12 2   
    19    12    13 1   
    20    13    14 1   
    21    13    36 1   
    22    13    37 1   
    23    14    15 ar  
    24    14    19 ar  
    25    15    18 ar  
    26    15    38 1   
    27    16    17 ar  
    28    16    18 ar  
    29    16    39 1   
    30    17    19 ar  
    31    17    20 1   
    32    18    40 1   
    33    19    41 1   
    34    20    42 1   
    35    20    43 1   
    36    20    44 1   
    37    21    22 ar  
    38    21    27 ar  
    39    21    45 1   
    40    22    23 ar  
    41    22    46 1   
    42    23    24 ar  
    43    23    25 1   
    44    24    28 ar  
    45    24    47 1   
    46    25    26 1   
    47    26    48 1   
    48    26    49 1   
    49    26    50 1   
    50    27    28 ar  
    51    27    31 1   
    52    28    29 1   
    53    29    30 1   
    54    30    31 1   
    55    30    51 1   
    56    30    52 1   
@<TRIPOS>SUBSTRUCTURE
     1 C4K         1 TEMP              0 ****  ****    0 ROOT
