/web/media/ligands/6DJ1_ligand.pdb
 OpenBabel04242009293D

 92101  0  0  1  0  0  0  0  0999 V2000
    5.1690   16.3660   63.7490 C   0  0  0  0  0  0  0  0  0  0  0  0
   18.7750   26.2650   62.8730 C   0  0  0  0  0  0  0  0  0  0  0  0
    6.9050   17.8280   62.7300 C   0  0  0  0  0  0  0  0  0  0  0  0
   16.4710   25.4860   63.3660 C   0  0  0  0  0  0  0  0  0  0  0  0
    7.9290   16.8830   63.2380 N   0  0  0  0  0  0  0  0  0  0  0  0
   17.0170   24.2960   64.0590 N   0  0  0  0  0  0  0  0  0  0  0  0
    7.6160   15.8750   64.0460 C   0  0  1  0  0  0  0  0  0  0  0  0
   18.3290   24.0320   63.9860 C   0  0  1  0  0  0  0  0  0  0  0  0
    6.2810   15.6640   64.3580 N   0  0  0  0  0  0  0  0  0  0  0  0
   19.1630   24.8920   63.2750 N   0  0  0  0  0  0  0  0  0  0  0  0
   14.9030   20.5570   61.6730 C   0  0  0  0  0  0  0  0  0  0  0  0
   10.6240   19.8120   66.1890 C   0  0  2  0  0  0  0  0  0  0  0  0
   16.1800   21.0410   61.5330 C   0  0  0  0  0  0  0  0  0  0  0  0
    9.6810   18.8420   66.5130 C   0  0  0  0  0  0  0  0  0  0  0  0
   16.5140   22.0890   60.6710 C   0  0  0  0  0  0  0  0  0  0  0  0
    8.3480   19.1960   66.6510 C   0  0  0  0  0  0  0  0  0  0  0  0
   15.5240   22.7110   59.9030 C   0  0  0  0  0  0  0  0  0  0  0  0
    7.9270   20.5000   66.4430 C   0  0  1  0  0  0  0  0  0  0  0  0
   14.2320   22.2350   60.0340 C   0  0  0  0  0  0  0  0  0  0  0  0
    8.8730   21.4840   66.1600 C   0  0  0  0  0  0  0  0  0  0  0  0
   13.9370   21.1300   60.8370 C   0  0  0  0  0  0  0  0  0  0  0  0
   10.2090   21.1230   66.0310 C   0  0  0  0  0  0  0  0  0  0  0  0
    8.4780   15.0970   64.5340 O   0  0  0  0  0  0  0  0  0  0  0  0
   18.8460   23.0550   64.5310 O   0  0  0  0  0  0  0  0  0  0  0  0
    9.3570   17.0790   62.8830 C   0  0  2  0  0  0  0  0  0  0  0  0
   16.1280   23.3870   64.8150 C   0  0  1  0  0  0  0  0  0  0  0  0
    9.8930   18.2830   63.6240 C   0  0  2  0  0  0  0  0  0  0  0  0
   15.1720   22.6790   63.8600 C   0  0  1  0  0  0  0  0  0  0  0  0
   10.6460   18.0430   64.7140 N   0  0  2  0  0  0  0  0  0  0  0  0
   15.5410   21.4420   63.5210 N   0  0  2  0  0  0  0  0  0  0  0  0
   11.1440   19.0920   65.6120 C   0  0  2  0  0  0  0  0  0  0  0  0
   14.7810   20.5850   62.6100 C   0  0  2  0  0  0  0  0  0  0  0  0
    9.5600   17.1780   61.3780 C   0  0  1  0  0  0  0  0  0  0  0  0
   15.3750   24.1300   65.9160 C   0  0  1  0  0  0  0  0  0  0  0  0
   11.0550   17.3980   61.1040 C   0  0  0  0  0  0  0  0  0  0  0  0
   14.3350   23.2350   66.5940 C   0  0  0  0  0  0  0  0  0  0  0  0
    9.1070   15.8860   60.6920 C   0  0  0  0  0  0  0  0  0  0  0  0
   16.3830   24.6310   66.9550 C   0  0  0  0  0  0  0  0  0  0  0  0
    9.5800   19.4040   63.1950 O   0  0  0  0  0  0  0  0  0  0  0  0
   14.1460   23.2340   63.4590 O   0  0  0  0  0  0  0  0  0  0  0  0
    7.2070   20.9410   66.8420 C   0  0  0  0  0  0  0  0  0  0  0  0
   15.4380   23.5380   59.3560 C   0  0  0  0  0  0  0  0  0  0  0  0
    6.2710   19.9210   66.7520 C   0  0  0  0  0  0  0  0  0  0  0  0
   16.7550   23.9730   59.4940 C   0  0  0  0  0  0  0  0  0  0  0  0
    6.7020   18.6020   66.7220 C   0  0  0  0  0  0  0  0  0  0  0  0
   17.6690   23.2300   60.2320 C   0  0  0  0  0  0  0  0  0  0  0  0
    8.0770   18.3380   66.8010 C   0  0  0  0  0  0  0  0  0  0  0  0
   17.2960   22.0360   60.8350 C   0  0  0  0  0  0  0  0  0  0  0  0
    9.0270   19.3410   66.8460 C   0  0  0  0  0  0  0  0  0  0  0  0
   15.9600   21.6260   60.7470 C   0  0  0  0  0  0  0  0  0  0  0  0
    8.5670   20.6610   66.9080 C   0  0  0  0  0  0  0  0  0  0  0  0
   15.0720   22.3430   59.9530 C   0  0  0  0  0  0  0  0  0  0  0  0
   10.3790   19.0760   66.9460 C   0  0  1  0  0  0  0  0  0  0  0  0
   15.5810   20.4230   61.3120 C   0  0  1  0  0  0  0  0  0  0  0  0
   12.6250   18.8120   65.8670 C   0  0  0  0  0  0  0  0  0  0  0  0
   14.5680   19.1860   63.2050 C   0  0  0  0  0  0  0  0  0  0  0  0
   13.4830   18.5890   64.6170 C   0  0  2  0  0  0  0  0  0  0  0  0
   13.9460   19.1800   64.5920 C   0  0  0  0  0  0  0  0  0  0  0  0
   13.7460   19.7990   63.7270 C   0  0  1  0  0  0  0  0  0  0  0  0
   12.4690   19.5920   64.6270 C   0  0  1  0  0  0  0  0  0  0  0  0
   14.4420   20.8770   64.4590 N   0  0  2  0  0  0  0  0  0  0  0  0
   11.6900   18.7450   63.7310 N   0  0  2  0  0  0  0  0  0  0  0  0
   13.8710   22.0720   64.6950 C   0  0  2  0  0  0  0  0  0  0  0  0
   11.0070   19.2440   62.6910 C   0  0  1  0  0  0  0  0  0  0  0  0
   14.8000   23.1450   65.2660 C   0  0  2  0  0  0  0  0  0  0  0  0
    9.9170   18.3650   62.0870 C   0  0  2  0  0  0  0  0  0  0  0  0
   16.0380   22.5870   65.7550 O   0  0  0  0  0  0  0  0  0  0  0  0
   10.1310   17.0040   62.4300 O   0  0  0  0  0  0  0  0  0  0  0  0
   16.8770   23.5730   66.1050 C   0  0  1  0  0  0  0  0  0  0  0  0
    9.1260   16.2120   62.0000 C   0  0  1  0  0  0  0  0  0  0  0  0
   14.7790   18.0320   64.9890 O   0  0  0  0  0  0  0  0  0  0  0  0
   14.0650   17.8530   65.1410 O   0  0  0  0  0  0  0  0  0  0  0  0
   14.5960   19.4570   62.4960 C   0  0  1  0  0  0  0  0  0  0  0  0
   11.9630   19.4500   66.0720 C   0  0  1  0  0  0  0  0  0  0  0  0
   12.6920   22.3170   64.4620 O   0  0  0  0  0  0  0  0  0  0  0  0
   11.1660   20.3710   62.2200 O   0  0  0  0  0  0  0  0  0  0  0  0
   16.8070   24.1500   67.3650 C   0  0  1  0  0  0  0  0  0  0  0  0
    9.2640   15.6780   60.7300 C   0  0  0  0  0  0  0  0  0  0  0  0
   17.7090   25.1670   67.6510 C   0  0  0  0  0  0  0  0  0  0  0  0
    8.2500   14.8710   60.2270 C   0  0  0  0  0  0  0  0  0  0  0  0
   18.6280   25.6400   66.7020 C   0  0  0  0  0  0  0  0  0  0  0  0
    7.1640   14.5910   61.0410 C   0  0  0  0  0  0  0  0  0  0  0  0
   18.6870   25.0210   65.4470 C   0  0  0  0  0  0  0  0  0  0  0  0
    7.0400   15.0950   62.3340 C   0  0  0  0  0  0  0  0  0  0  0  0
   17.8450   23.9250   65.1900 C   0  0  0  0  0  0  0  0  0  0  0  0
    8.0270   15.9710   62.8010 C   0  0  2  0  0  0  0  0  0  0  0  0
   17.8190   23.3160   63.9240 C   0  0  1  0  0  0  0  0  0  0  0  0
    7.9130   16.5300   64.0740 C   0  0  0  0  0  0  0  0  0  0  0  0
   15.8580   23.7900   68.3460 C   0  0  0  0  0  0  0  0  0  0  0  0
   10.4830   15.8300   60.0760 C   0  0  0  0  0  0  0  0  0  0  0  0
    5.6050   17.1050   62.4870 C   0  0  0  0  0  0  0  0  0  0  0  0
   17.4410   26.6700   63.4850 C   0  0  0  0  0  0  0  0  0  0  0  0
  1  9  1  0  0  0  0
  2 10  1  0  0  0  0
  2 92  1  0  0  0  0
  4 92  1  0  0  0  0
  5 88  1  0  0  0  0
  7 88  1  0  0  0  0
  7  9  1  0  0  0  0
  7 23  1  1  0  0  0
  8 85  1  6  0  0  0
 10  8  1  0  0  0  0
 11 32  1  0  0  0  0
 12 22  1  6  0  0  0
 12 53  1  0  0  0  0
 14 49  1  0  0  0  0
 15 50  1  0  0  0  0
 15 48  1  0  0  0  0
 16 47  2  0  0  0  0
 16 49  1  0  0  0  0
 17 52  1  0  0  0  0
 18 16  1  0  0  0  0
 18 41  1  1  0  0  0
 18 51  1  0  0  0  0
 19 21  1  0  0  0  0
 20 51  1  0  0  0  0
 22 20  1  0  0  0  0
 25 70  1  6  0  0  0
 25 27  1  0  0  0  0
 26 65  1  0  0  0  0
 26 67  1  1  0  0  0
 27 29  1  1  0  0  0
 28 30  1  1  0  0  0
 28 26  1  0  0  0  0
 29 62  1  6  0  0  0
 30 61  1  1  0  0  0
 31 29  1  1  0  0  0
 31 74  1  0  0  0  0
 31 12  1  0  0  0  0
 32 30  1  1  0  0  0
 33 70  1  1  0  0  0
 33 66  1  0  0  0  0
 33 68  1  0  0  0  0
 34 36  1  1  0  0  0
 34 38  1  0  0  0  0
 37 70  1  0  0  0  0
 38 77  1  0  0  0  0
 39 27  1  0  0  0  0
 40 28  1  0  0  0  0
 40 63  1  0  0  0  0
 42 17  2  0  0  0  0
 43 41  1  0  0  0  0
 44 46  1  0  0  0  0
 45 43  1  0  0  0  0
 46 48  1  0  0  0  0
 50 13  1  0  0  0  0
 52 19  1  0  0  0  0
 53 14  1  6  0  0  0
 54 13  1  1  0  0  0
 54 11  1  0  0  0  0
 54 73  1  0  0  0  0
 55 74  1  0  0  0  0
 56 59  1  0  0  0  0
 57 58  1  1  0  0  0
 57 60  1  0  0  0  0
 57 72  1  0  0  0  0
 59 61  1  1  0  0  0
 59 58  1  0  0  0  0
 60 62  1  6  0  0  0
 60 55  1  0  0  0  0
 61 63  1  0  0  0  0
 64 39  1  0  0  0  0
 64 62  1  0  0  0  0
 65 34  1  0  0  0  0
 65 36  1  0  0  0  0
 66 64  1  0  0  0  0
 66 27  1  0  0  0  0
 67 69  1  0  0  0  0
 68 25  1  0  0  0  0
 69 77  1  0  0  0  0
 70 86  1  0  0  0  0
 71 72  1  0  0  0  0
 73 32  1  0  0  0  0
 73 56  1  0  0  0  0
 74 53  1  0  0  0  0
 75 63  1  0  0  0  0
 76 64  1  0  0  0  0
 77 79  1  0  0  0  0
 77 89  1  0  0  0  0
 80 78  1  0  0  0  0
 80 82  2  0  0  0  0
 81 79  2  0  0  0  0
 82 84  1  0  0  0  0
 83 81  1  0  0  0  0
 85 69  1  0  0  0  0
 86  5  1  0  0  0  0
 86  7  1  0  0  0  0
 87  8  1  0  0  0  0
 87  6  1  0  0  0  0
 87 24  1  0  0  0  0
 90 78  1  0  0  0  0
 91  3  1  0  0  0  0
 91  1  1  0  0  0  0
M  END
>  <REMARK>
 800 SITE_DESCRIPTION: binding site for residue AB1 B 201                 

>  <HET>
 AB1  B 201      92                                                       

>  <HETNAM>
     AB1 N-{1-BENZYL-4-[2-(2,6-DIMETHYL-PHENOXY)-ACETYLAMINO]-3-          
   2 AB1  HYDROXY-5-PHENYL-PENTYL}-3-METHYL-2-(2-OXO-TETRAHYDRO-          
   3 AB1  PYRIMIDIN-1-YL)-BUTYRAMIDE                                      

>  <HETSYN>
     AB1 ABT-378, LOPINAVIR                                               

>  <FORMUL>
   5  AB1    C37 H48 N4 O5                                                

>  <ANISOU>
 1636  C1 AAB1 B 201     2354   1413   1756    200   -271    294       C  
 1636  C1 AAB1 B 201     2354   1413   1756    200   -271    294       C  
 1637  C1 BAB1 B 201     2011    946   3002    187    434    626       C  
 1637  C1 BAB1 B 201     2011    946   3002    187    434    626       C  
 1638  C2 AAB1 B 201     2533    644   2047    -48   -607    138       C  
 1638  C2 AAB1 B 201     2533    644   2047    -48   -607    138       C  
 1639  C2 BAB1 B 201     2071    788   2136     39    373     97       C  
 1639  C2 BAB1 B 201     2071    788   2136     39    373     97       C  
 1640  N1 AAB1 B 201     2428    505   1751    172     38    -22       N  
 1640  N1 AAB1 B 201     2428    505   1751    172     38    -22       N  
 1641  N1 BAB1 B 201     1851    741   1615   -147    221    -53       N  
 1641  N1 BAB1 B 201     1851    741   1615   -147    221    -53       N  
 1642  C3 AAB1 B 201     2305    484   1586    173     53    -41       C  
 1642  C3 AAB1 B 201     2305    484   1586    173     53    -41       C  
 1643  C3 BAB1 B 201     1808   1164   1447   -181    177    388       C  
 1643  C3 BAB1 B 201     1808   1164   1447   -181    177    388       C  
 1644  N2 AAB1 B 201     2271   1026   1695    452    174    142       N  
 1644  N2 AAB1 B 201     2271   1026   1695    452    174    142       N  
 1645  N2 BAB1 B 201     1632    789   1927   -302   -251    536       N  
 1645  N2 BAB1 B 201     1632    789   1927   -302   -251    536       N  
 1646  C4 AAB1 B 201     2602    921   1275   -167   -271    -34       C  
 1646  C4 AAB1 B 201     2602    921   1275   -167   -271    -34       C  
 1647  C4 BAB1 B 201     1869    915   1431     49    140   -201       C  
 1647  C4 BAB1 B 201     1869    915   1431     49    140   -201       C  
 1648  C5 AAB1 B 201     2583   1587   1346   -125      2    243       C  
 1648  C5 AAB1 B 201     2583   1587   1346   -125      2    243       C  
 1649  C5 BAB1 B 201     2043   1052   1640   -131    197   -339       C  
 1649  C5 BAB1 B 201     2043   1052   1640   -131    197   -339       C  
 1650  C6 AAB1 B 201     2616   1360   1446   -220    -21     93       C  
 1650  C6 AAB1 B 201     2616   1360   1446   -220    -21     93       C  
 1651  C6 BAB1 B 201     1900   1186   1878   -303    -65   -497       C  
 1651  C6 BAB1 B 201     1900   1186   1878   -303    -65   -497       C  
 1652  C7 AAB1 B 201     2836   1081   1543    143     73    -20       C  
 1652  C7 AAB1 B 201     2836   1081   1543    143     73    -20       C  
 1653  C7 BAB1 B 201     1945   1657   1739     75   -179    170       C  
 1653  C7 BAB1 B 201     1945   1657   1739     75   -179    170       C  
 1654  C8 AAB1 B 201     2823   1246   1917     74   -454    294       C  
 1654  C8 AAB1 B 201     2823   1246   1917     74   -454    294       C  
 1655  C8 BAB1 B 201     2028   1257   1645    297    -16    247       C  
 1655  C8 BAB1 B 201     2028   1257   1645    297    -16    247       C  
 1656  C9 AAB1 B 201     2698   1422   1478    136   -115    179       C  
 1656  C9 AAB1 B 201     2698   1422   1478    136   -115    179       C  
 1657  C9 BAB1 B 201     1946   1125   2057    178   -122    238       C  
 1657  C9 BAB1 B 201     1946   1125   2057    178   -122    238       C  
 1658  O1 AAB1 B 201     2053    984   1173    -15    -96     21       O  
 1658  O1 AAB1 B 201     2053    984   1173    -15    -96     21       O  
 1659  O1 BAB1 B 201     1556   1189    790   -433     -4    363       O  
 1659  O1 BAB1 B 201     1556   1189    790   -433     -4    363       O  
 1660  C10AAB1 B 201     2380   1060   1301   -211   -229    -55       C  
 1660  C10AAB1 B 201     2380   1060   1301   -211   -229    -55       C  
 1661  C10BAB1 B 201     1678    977   1529   -130    181     17       C  
 1661  C10BAB1 B 201     1678    977   1529   -130    181     17       C  
 1662  C11AAB1 B 201     2357    844   1290    184   -228   -128       C  
 1662  C11AAB1 B 201     2357    844   1290    184   -228   -128       C  
 1663  C11BAB1 B 201     1569    755   1184    -13    301     98       C  
 1663  C11BAB1 B 201     1569    755   1184    -13    301     98       C  
 1664  N3 AAB1 B 201     2410    918   1150    142   -221   -138       N  
 1664  N3 AAB1 B 201     2410    918   1150    142   -221   -138       N  
 1665  N3 BAB1 B 201     1432    810   1137      8    487    135       N  
 1665  N3 BAB1 B 201     1432    810   1137      8    487    135       N  
 1666  C12AAB1 B 201     2141    998   1293    -22   -126   -148       C  
 1666  C12AAB1 B 201     2141    998   1293    -22   -126   -148       C  
 1667  C12BAB1 B 201     2200    530   1118     65    102    288       C  
 1667  C12BAB1 B 201     2200    530   1118     65    102    288       C  
 1668  C13AAB1 B 201     2386   1477   1322   -313   -160   -199       C  
 1668  C13AAB1 B 201     2386   1477   1322   -313   -160   -199       C  
 1669  C13BAB1 B 201     1987    876   1335   -102     84    -19       C  
 1669  C13BAB1 B 201     1987    876   1335   -102     84    -19       C  
 1670  C14AAB1 B 201     2449   2480   2040   -627     -1    342       C  
 1670  C14AAB1 B 201     2449   2480   2040   -627     -1    342       C  
 1671  C14BAB1 B 201     1289    391   1867    514    215     -6       C  
 1671  C14BAB1 B 201     1289    391   1867    514    215     -6       C  
 1672  C15AAB1 B 201     2229   1237   1350    111   -200   -199       C  
 1672  C15AAB1 B 201     2229   1237   1350    111   -200   -199       C  
 1673  C15BAB1 B 201     2267   1797   1900   -538    -26   -459       C  
 1673  C15BAB1 B 201     2267   1797   1900   -538    -26   -459       C  
 1674  O2 AAB1 B 201     2436    999   1876   -141   -562    239       O  
 1674  O2 AAB1 B 201     2436    999   1876   -141   -562    239       O  
 1675  O2 BAB1 B 201     2021    364   1536    -64   -114    419       O  
 1675  O2 BAB1 B 201     2021    364   1536    -64   -114    419       O  
 1676  C16AAB1 B 201     2358   2655   1608    656   -192   -140       C  
 1676  C16AAB1 B 201     2358   2655   1608    656   -192   -140       C  
 1677  C16BAB1 B 201     2055    620   1866    402    484    334       C  
 1677  C16BAB1 B 201     2055    620   1866    402    484    334       C  
 1678  C17AAB1 B 201     2449   3188   1843    359    -58   -306       C  
 1678  C17AAB1 B 201     2449   3188   1843    359    -58   -306       C  
 1679  C17BAB1 B 201     2563    693   2088   -366    496    593       C  
 1679  C17BAB1 B 201     2563    693   2088   -366    496    593       C  
 1680  C18AAB1 B 201     2511   2949   1662     19   -305   -359       C  
 1680  C18AAB1 B 201     2511   2949   1662     19   -305   -359       C  
 1681  C18BAB1 B 201     2439   1260   1932  -1001   -563    180       C  
 1681  C18BAB1 B 201     2439   1260   1932  -1001   -563    180       C  
 1682  C19AAB1 B 201     2482   2237   1683    -27   -133   -594       C  
 1682  C19AAB1 B 201     2482   2237   1683    -27   -133   -594       C  
 1683  C19BAB1 B 201     1939   1160   1151   -245   -276    279       C  
 1683  C19BAB1 B 201     1939   1160   1151   -245   -276    279       C  
 1684  C20AAB1 B 201     2413   1595   1418    268     32   -245       C  
 1684  C20AAB1 B 201     2413   1595   1418    268     32   -245       C  
 1685  C20BAB1 B 201     2087   1025   1031   -467   -275    368       C  
 1685  C20BAB1 B 201     2087   1025   1031   -467   -275    368       C  
 1686  C21AAB1 B 201     2387   1910   2215    678   -129   -178       C  
 1686  C21AAB1 B 201     2387   1910   2215    678   -129   -178       C  
 1687  C21BAB1 B 201     1850    906   1712   -334   -269    381       C  
 1687  C21BAB1 B 201     1850    906   1712   -334   -269    381       C  
 1688  C22AAB1 B 201     2379   1042   1429    290    132   -331       C  
 1688  C22AAB1 B 201     2379   1042   1429    290    132   -331       C  
 1689  C22BAB1 B 201     2286    864   1012   -248     70    217       C  
 1689  C22BAB1 B 201     2286    864   1012   -248     70    217       C  
 1690  C23AAB1 B 201     2025   1663   1574    -74    -38    109       C  
 1690  C23AAB1 B 201     2025   1663   1574    -74    -38    109       C  
 1691  C23BAB1 B 201     2044    500   1030    238    155    270       C  
 1691  C23BAB1 B 201     2044    500   1030    238    155    270       C  
 1692  C24AAB1 B 201     2331   1033   1528    152     49     41       C  
 1692  C24AAB1 B 201     2331   1033   1528    152     49     41       C  
 1693  C24BAB1 B 201     1724    664    954     36      7    250       C  
 1693  C24BAB1 B 201     1724    664    954     36      7    250       C  
 1694  C25AAB1 B 201     2697    969   1270   -219   -138   -189       C  
 1694  C25AAB1 B 201     2697    969   1270   -219   -138   -189       C  
 1695  C25BAB1 B 201     1822    821   1301    156    104    185       C  
 1695  C25BAB1 B 201     1822    821   1301    156    104    185       C  
 1696  N4 AAB1 B 201     2301    999   1726     98   -621   -285       N  
 1696  N4 AAB1 B 201     2301    999   1726     98   -621   -285       N  
 1697  N4 BAB1 B 201     1391    370   1267   -174    372    609       N  
 1697  N4 BAB1 B 201     1391    370   1267   -174    372    609       N  
 1698  C26AAB1 B 201     2301   1064   1882    155   -703   -419       C  
 1698  C26AAB1 B 201     2301   1064   1882    155   -703   -419       C  
 1699  C26BAB1 B 201     1208    764   1107   -189    447    546       C  
 1699  C26BAB1 B 201     1208    764   1107   -189    447    546       C  
 1700  C27AAB1 B 201     2409   1077   2121     89   -812   -382       C  
 1700  C27AAB1 B 201     2409   1077   2121     89   -812   -382       C  
 1701  C27BAB1 B 201     2326    545   1380   -104    -65   -158       C  
 1701  C27BAB1 B 201     2326    545   1380   -104    -65   -158       C  
 1702  O3 AAB1 B 201     2246   1000   2040    -17   -626   -126       O  
 1702  O3 AAB1 B 201     2246   1000   2040    -17   -626   -126       O  
 1703  O3 BAB1 B 201     2033    898   1357   -463   -661    670       O  
 1703  O3 BAB1 B 201     2033    898   1357   -463   -661    670       O  
 1704  C28AAB1 B 201     2188   1210   1411   -104   -336   -182       C  
 1704  C28AAB1 B 201     2188   1210   1411   -104   -336   -182       C  
 1705  C28BAB1 B 201     1811    709   1215   -276   -239    262       C  
 1705  C28BAB1 B 201     1811    709   1215   -276   -239    262       C  
 1706  O4 AAB1 B 201     2034   1081   2618    -95    140    293       O  
 1706  O4 AAB1 B 201     2034   1081   2618    -95    140    293       O  
 1707  O4 BAB1 B 201     1939    691   1624    303    920    468       O  
 1707  O4 BAB1 B 201     1939    691   1624    303    920    468       O  
 1708  C29AAB1 B 201     2555   1078   1360    -40    -55      9       C  
 1708  C29AAB1 B 201     2555   1078   1360    -40    -55      9       C  
 1709  C29BAB1 B 201     1988   1122   1467    217    388    119       C  
 1709  C29BAB1 B 201     1988   1122   1467    217    388    119       C  
 1710  O5 AAB1 B 201     2267   1016   2153    128   -660   -446       O  
 1710  O5 AAB1 B 201     2267   1016   2153    128   -660   -446       O  
 1711  O5 BAB1 B 201     2368    451   1123    -90   -415    354       O  
 1711  O5 BAB1 B 201     2368    451   1123    -90   -415    354       O  
 1712  C30AAB1 B 201     2279   1911   1922    -39     97   -839       C  
 1712  C30AAB1 B 201     2279   1911   1922    -39     97   -839       C  
 1713  C30BAB1 B 201     1877    906   1377   -463    178    127       C  
 1713  C30BAB1 B 201     1877    906   1377   -463    178    127       C  
 1714  C31AAB1 B 201     2275   1397   2254    332   -269   -923       C  
 1714  C31AAB1 B 201     2275   1397   2254    332   -269   -923       C  
 1715  C31BAB1 B 201     1825    910   1211    -66   -296    120       C  
 1715  C31BAB1 B 201     1825    910   1211    -66   -296    120       C  
 1716  C32AAB1 B 201     2279   1002   2835    308   -225   -441       C  
 1716  C32AAB1 B 201     2279   1002   2835    308   -225   -441       C  
 1717  C32BAB1 B 201     1801    696   1338   -500   -408    118       C  
 1717  C32BAB1 B 201     1801    696   1338   -500   -408    118       C  
 1718  C33AAB1 B 201     2597   1222   2423    -93    153     15       C  
 1718  C33AAB1 B 201     2597   1222   2423    -93    153     15       C  
 1719  C33BAB1 B 201     1855    717   1179   -318   -251    326       C  
 1719  C33BAB1 B 201     1855    717   1179   -318   -251    326       C  
 1720  C34AAB1 B 201     2381   1536   1545    -53   -134   -123       C  
 1720  C34AAB1 B 201     2381   1536   1545    -53   -134   -123       C  
 1721  C34BAB1 B 201     1838    587   1203   -128   -113   -114       C  
 1721  C34BAB1 B 201     1838    587   1203   -128   -113   -114       C  
 1722  C35AAB1 B 201     3453   2641   1819     77    293   -733       C  
 1722  C35AAB1 B 201     3453   2641   1819     77    293   -733       C  
 1723  C35BAB1 B 201     3367      0    913    -41    -45    361       C  
 1723  C35BAB1 B 201     3367      0    913    -41    -45    361       C  
 1724  C36AAB1 B 201     3119   1500   1544    399     52    221       C  
 1724  C36AAB1 B 201     3119   1500   1544    399     52    221       C  
 1725  C36BAB1 B 201     2280    246   2020   -217    671    943       C  
 1725  C36BAB1 B 201     2280    246   2020   -217    671    943       C  
 1726  C37AAB1 B 201     2650   1138   2413   -493   -497    712       C  
 1726  C37AAB1 B 201     2650   1138   2413   -493   -497    712       C  
 1727  C37BAB1 B 201     2347    832   2771   -196    887    131       C  
 1727  C37BAB1 B 201     2347    832   2771   -196    887    131       C  

$$$$
