@<TRIPOS>MOLECULE
1US
   34    35     1     0     0
SMALL
bcc


@<TRIPOS>ATOM
      1 H15          0.3510   -16.4480    27.6850 ha         0 1US       0.140000
      2 H06         -2.7550   -15.2320    33.2870 ha         0 1US       0.140000
      3 H14          0.3110   -18.5060    26.2860 ha         0 1US       0.140000
      4 H05         -1.5770   -15.9080    29.1540 ha         0 1US       0.155000
      5 H04         -1.6520   -20.0330    26.3910 ha         0 1US       0.150000
      6 H03          0.2610   -10.0280    33.1460 hc         0 1US       0.042367
      7 H01          0.9810   -11.2400    32.0600 hc         0 1US       0.042367
      8 H02         -0.3540   -10.2140    31.4850 hc         0 1US       0.042367
      9 H13         -4.8310   -15.7560    28.0050 ho         0 1US       0.439000
     10 H08         -4.3870   -12.9040    30.0540 ha         0 1US       0.155000
     11 H11         -2.4950   -11.0200    31.3700 ha         0 1US       0.127000
     12 H10         -4.3950   -12.1160    32.4810 hc         0 1US       0.057700
     13 H09         -3.2490   -12.9750    33.6010 hc         0 1US       0.057700
     14 H12         -0.7090   -12.5070    33.6130 ha         0 1US       0.118000
     15 H07         -2.8920   -17.2850    31.8840 ha         0 1US       0.150000
     16 C            0.0560   -10.7410    32.3470 c3         0 1US      -0.064900
     17 C1          -2.6980   -17.6610    28.5900 ca         0 1US       0.114100
     18 C2          -1.6360   -19.1230    26.9900 ca         0 1US      -0.104000
     19 C3          -1.5940   -16.8110    28.5440 ca         0 1US      -0.173000
     20 C4          -3.1410   -15.1730    32.2690 ca         0 1US      -0.152000
     21 C5          -3.2110   -16.3250    31.4790 ca         0 1US      -0.104000
     22 C6          -3.6930   -16.2430    30.1640 ca         0 1US      -0.005900
     23 C7          -4.1170   -15.0040    29.6510 ca         0 1US       0.136100
     24 C8          -4.0540   -13.8630    30.4500 ca         0 1US      -0.154000
     25 C9          -3.5670   -13.9450    31.7510 ca         0 1US      -0.040300
     26 C10         -3.4580   -12.6640    32.5780 c3         0 1US      -0.007900
     27 C11         -2.3230   -11.7400    32.1700 c2         0 1US      -0.172200
     28 C12         -0.9540   -11.7820    32.8370 c2         0 1US      -0.166200
     29 O           -4.5900   -14.8880    28.3370 oh         0 1US      -0.491100
     30 O1          -3.8130   -17.4090    29.4030 os         0 1US      -0.248200
     31 C13         -2.7130   -18.8100    27.8080 ca         0 1US      -0.004600
     32 C14         -0.5310   -18.2700    26.9360 ca         0 1US      -0.146000
     33 C15         -0.5110   -17.1140    27.7190 ca         0 1US      -0.101000
     34 Cl          -4.1670   -19.8360    27.8390 cl         0 1US      -0.070400
@<TRIPOS>BOND
     1     1    33 1   
     2     2    20 1   
     3     3    32 1   
     4     4    19 1   
     5     5    18 1   
     6     6    16 1   
     7     7    16 1   
     8     8    16 1   
     9     9    29 1   
    10    10    24 1   
    11    11    27 1   
    12    12    26 1   
    13    13    26 1   
    14    14    28 1   
    15    15    21 1   
    16    16    28 1   
    17    17    19 ar  
    18    17    30 1   
    19    17    31 ar  
    20    18    31 ar  
    21    18    32 ar  
    22    19    33 ar  
    23    20    21 ar  
    24    20    25 ar  
    25    21    22 ar  
    26    22    23 ar  
    27    22    30 1   
    28    23    24 ar  
    29    23    29 1   
    30    24    25 ar  
    31    25    26 1   
    32    26    27 1   
    33    27    28 2   
    34    31    34 1   
    35    32    33 ar  
@<TRIPOS>SUBSTRUCTURE
     1 1US         1 TEMP              0 ****  ****    0 ROOT
