REMARK  Name = /web/media/ligands/5J27_ligand.pdb
REMARK  6 active torsions:
REMARK  status: ('A' for Active; 'I' for Inactive)
REMARK    1  A    between atoms: C_4  and  C_11
REMARK    2  A    between atoms: C_6  and  N_18
REMARK    3  A    between atoms: C_13  and  S_22
REMARK    4  A    between atoms: S_22  and  N_25
REMARK    5  A    between atoms: N_25  and  C_26
REMARK    6  A    between atoms: C_26  and  C_27
REMARK                            x       y       z     vdW  Elec       q    Type
REMARK                         _______ _______ _______ _____ _____    ______ ____
ROOT
ATOM      1  C   UNL     1      -0.030  32.140  25.665  0.00  0.00    +0.217 A 
ATOM      2  C   UNL     1       1.154  32.732  25.171  0.00  0.00    +0.161 A 
ATOM      3  C   UNL     1       1.117  33.400  23.957  0.00  0.00    +0.029 A 
ATOM      4  C   UNL     1      -0.104  33.654  23.331  0.00  0.00    +0.077 A 
ATOM      5  C   UNL     1      -1.289  33.082  23.829  0.00  0.00    +0.202 A 
ATOM      6  O   UNL     1      -2.450  33.277  23.152  0.00  0.00    -0.286 OA
ATOM      7  C   UNL     1      -1.267  32.359  25.020  0.00  0.00    +0.086 A 
ATOM      8  O   UNL     1      -0.015  31.436  26.822  0.00  0.00    -0.285 OA
ENDROOT
BRANCH   4   9
ATOM      9  C   UNL     1      -0.125  34.512  22.133  0.00  0.00    +0.176 A 
ATOM     10  N   UNL     1       0.465  35.771  22.069  0.00  0.00    -0.238 N 
ATOM     11  C   UNL     1       0.243  36.262  20.828  0.00  0.00    +0.373 A 
ATOM     12  O   UNL     1       0.630  37.349  20.410  0.00  0.00    -0.242 OA
ATOM     13  N   UNL     1      -0.483  35.342  20.151  0.00  0.00    -0.088 NA
ATOM     14  N   UNL     1      -0.727  34.250  20.994  0.00  0.00    -0.125 NA
BRANCH  10  15
ATOM     15  C   UNL     1       1.171  36.440  23.094  0.00  0.00    +0.097 A 
ATOM     16  C   UNL     1       2.547  36.626  22.955  0.00  0.00    +0.156 A 
ATOM     17  F   UNL     1       3.146  36.113  21.863  0.00  0.00    -0.203 F 
ATOM     18  C   UNL     1       3.280  37.298  23.950  0.00  0.00    +0.031 A 
ATOM     19  C   UNL     1       2.615  37.799  25.069  0.00  0.00    +0.002 A 
ATOM     20  C   UNL     1       1.240  37.629  25.207  0.00  0.00    +0.002 A 
ATOM     21  C   UNL     1       0.510  36.967  24.217  0.00  0.00    +0.020 A 
ENDBRANCH  10  15
ENDBRANCH   4   9
BRANCH   2  22
ATOM     22  S   UNL     1       2.757  32.463  25.894  0.00  0.00    +0.066 S 
ATOM     23  O   UNL     1       3.642  33.463  25.367  0.00  0.00    -0.153 OA
ATOM     24  O   UNL     1       2.506  32.369  27.296  0.00  0.00    -0.153 OA
BRANCH  22  25
ATOM     25  N   UNL     1       3.175  30.995  25.238  0.00  0.00    -0.154 NA
ATOM     26  C   UNL     1       2.464  29.779  25.675  0.00  0.00    +0.115 C 
BRANCH  25  27
ATOM     27  C   UNL     1       4.110  30.934  24.097  0.00  0.00    +0.096 C 
BRANCH  27  28
ATOM     28  C   UNL     1       5.315  29.999  24.318  0.00  0.00    +0.019 C 
ATOM     29  C   UNL     1       6.081  29.877  23.000  0.00  0.00    +0.002 C 
ENDBRANCH  27  28
ENDBRANCH  25  27
ENDBRANCH  22  25
ENDBRANCH   2  22
TORSDOF 6
