@<TRIPOS>MOLECULE
/web/media/ligands/5J27_ligand.pdb
 29 31 0 0 0
SMALL
GASTEIGER

@<TRIPOS>ATOM
      1 C          -0.0300   32.1400   25.6650 C.ar    1  UNL1        0.2173
      2 C          -1.2670   32.3590   25.0200 C.ar    1  UNL1        0.0855
      3 C          -1.2890   33.0820   23.8290 C.ar    1  UNL1        0.2019
      4 C          -0.1250   34.5120   22.1330 C.ar    1  UNL1        0.1759
      5 C           0.2430   36.2620   20.8280 C.ar    1  UNL1        0.3730
      6 C           1.1710   36.4400   23.0940 C.ar    1  UNL1        0.0971
      7 C           2.5470   36.6260   22.9550 C.ar    1  UNL1        0.1563
      8 C           3.2800   37.2980   23.9500 C.ar    1  UNL1        0.0311
      9 C           0.5100   36.9670   24.2170 C.ar    1  UNL1        0.0200
     10 C           6.0810   29.8770   23.0000 C.3     1  UNL1        0.0015
     11 C          -0.1040   33.6540   23.3310 C.ar    1  UNL1        0.0768
     12 C           1.1170   33.4000   23.9570 C.ar    1  UNL1        0.0295
     13 C           1.1540   32.7320   25.1710 C.ar    1  UNL1        0.1612
     14 O          -0.0150   31.4360   26.8220 O.3     1  UNL1       -0.2850
     15 O          -2.4500   33.2770   23.1520 O.3     1  UNL1       -0.2864
     16 N          -0.7270   34.2500   20.9940 N.ar    1  UNL1       -0.1253
     17 N          -0.4830   35.3420   20.1510 N.ar    1  UNL1       -0.0879
     18 N           0.4650   35.7710   22.0690 N.ar    1  UNL1       -0.2385
     19 C           2.6150   37.7990   25.0690 C.ar    1  UNL1        0.0024
     20 C           1.2400   37.6290   25.2070 C.ar    1  UNL1        0.0016
     21 O           0.6300   37.3490   20.4100 O.2     1  UNL1       -0.2424
     22 S           2.7570   32.4630   25.8940 S.O2    1  UNL1        0.0664
     23 O           3.6420   33.4630   25.3670 O.2     1  UNL1       -0.1527
     24 O           2.5060   32.3690   27.2960 O.2     1  UNL1       -0.1527
     25 N           3.1750   30.9950   25.2380 N.3     1  UNL1       -0.1539
     26 C           4.1100   30.9340   24.0970 C.3     1  UNL1        0.0959
     27 C           5.3150   29.9990   24.3180 C.3     1  UNL1        0.0191
     28 C           2.4640   29.7790   25.6750 C.3     1  UNL1        0.1149
     29 F           3.1460   36.1130   21.8630 F       1  UNL1       -0.2026
@<TRIPOS>BOND
     1     1    14    1
     2     2     1   ar
     3     3     2   ar
     4     4    11    1
     5     5    18   ar
     6     6     9   ar
     7     7     6   ar
     8     7     8   ar
     9     8    19   ar
    10     9    20   ar
    11    10    27    1
    12    11     3   ar
    13    11    12   ar
    14    12    13   ar
    15    13     1   ar
    16    13    22    1
    17    15     3    1
    18    16     4   ar
    19    17     5   ar
    20    17    16   ar
    21    18     4   ar
    22    18     6    1
    23    19    20   ar
    24    21     5    2
    25    22    24    2
    26    23    22    2
    27    25    28    1
    28    25    22    1
    29    26    27    1
    30    26    25    1
    31    29     7    1
