/web/media/ligands/5J27_ligand.pdb
 OpenBabel04242009293D

 29 31  0  0  0  0  0  0  0  0999 V2000
   -0.0300   32.1400   25.6650 C   0  0  0  0  0  0  0  0  0  0  0  0
   -1.2670   32.3590   25.0200 C   0  0  0  0  0  0  0  0  0  0  0  0
   -1.2890   33.0820   23.8290 C   0  0  0  0  0  0  0  0  0  0  0  0
   -0.1250   34.5120   22.1330 C   0  0  0  0  0  0  0  0  0  0  0  0
    0.2430   36.2620   20.8280 C   0  0  0  0  0  0  0  0  0  0  0  0
    1.1710   36.4400   23.0940 C   0  0  0  0  0  0  0  0  0  0  0  0
    2.5470   36.6260   22.9550 C   0  0  0  0  0  0  0  0  0  0  0  0
    3.2800   37.2980   23.9500 C   0  0  0  0  0  0  0  0  0  0  0  0
    0.5100   36.9670   24.2170 C   0  0  0  0  0  0  0  0  0  0  0  0
    6.0810   29.8770   23.0000 C   0  0  0  0  0  0  0  0  0  0  0  0
   -0.1040   33.6540   23.3310 C   0  0  0  0  0  0  0  0  0  0  0  0
    1.1170   33.4000   23.9570 C   0  0  0  0  0  0  0  0  0  0  0  0
    1.1540   32.7320   25.1710 C   0  0  0  0  0  0  0  0  0  0  0  0
   -0.0150   31.4360   26.8220 O   0  0  0  0  0  0  0  0  0  0  0  0
   -2.4500   33.2770   23.1520 O   0  0  0  0  0  0  0  0  0  0  0  0
   -0.7270   34.2500   20.9940 N   0  0  0  0  0  0  0  0  0  0  0  0
   -0.4830   35.3420   20.1510 N   0  0  0  0  0  0  0  0  0  0  0  0
    0.4650   35.7710   22.0690 N   0  0  0  0  0  0  0  0  0  0  0  0
    2.6150   37.7990   25.0690 C   0  0  0  0  0  0  0  0  0  0  0  0
    1.2400   37.6290   25.2070 C   0  0  0  0  0  0  0  0  0  0  0  0
    0.6300   37.3490   20.4100 O   0  0  0  0  0  0  0  0  0  0  0  0
    2.7570   32.4630   25.8940 S   0  0  0  0  0  0  0  0  0  0  0  0
    3.6420   33.4630   25.3670 O   0  0  0  0  0  0  0  0  0  0  0  0
    2.5060   32.3690   27.2960 O   0  0  0  0  0  0  0  0  0  0  0  0
    3.1750   30.9950   25.2380 N   0  0  0  0  0  0  0  0  0  0  0  0
    4.1100   30.9340   24.0970 C   0  0  0  0  0  0  0  0  0  0  0  0
    5.3150   29.9990   24.3180 C   0  0  0  0  0  0  0  0  0  0  0  0
    2.4640   29.7790   25.6750 C   0  0  0  0  0  0  0  0  0  0  0  0
    3.1460   36.1130   21.8630 F   0  0  0  0  0  0  0  0  0  0  0  0
  1 14  1  0  0  0  0
  2  1  2  0  0  0  0
  3  2  1  0  0  0  0
  4 11  1  0  0  0  0
  5 18  1  0  0  0  0
  6  9  1  0  0  0  0
  7  6  2  0  0  0  0
  7  8  1  0  0  0  0
  8 19  2  0  0  0  0
  9 20  2  0  0  0  0
 10 27  1  0  0  0  0
 11  3  2  0  0  0  0
 11 12  1  0  0  0  0
 12 13  2  0  0  0  0
 13  1  1  0  0  0  0
 13 22  1  0  0  0  0
 15  3  1  0  0  0  0
 16  4  2  0  0  0  0
 17  5  1  0  0  0  0
 17 16  1  0  0  0  0
 18  4  1  0  0  0  0
 18  6  1  0  0  0  0
 19 20  1  0  0  0  0
 21  5  2  0  0  0  0
 22 24  2  0  0  0  0
 23 22  2  0  0  0  0
 25 28  1  0  0  0  0
 25 22  1  0  0  0  0
 26 27  1  0  0  0  0
 26 25  1  0  0  0  0
 29  7  1  0  0  0  0
M  END
>  <REMARK>
 800 SITE_DESCRIPTION: binding site for residue 6FF A 301                 

>  <HET>
 6FF  A 301      29                                                       

>  <HETNAM>
     6FF 5-[4-(2-FLUOROPHENYL)-5-OXO-4,5-DIHYDRO-1H-1,2,4-                
   2 6FF  TRIAZOL-3-YL]-2,4-DIHYDROXY-N-METHYL-N-PROPYLBENZENE-           
   3 6FF  1-SULFONAMIDE                                                   

>  <FORMUL>
   2  6FF    C18 H19 F N4 O5 S                                            

$$$$
