@<TRIPOS>MOLECULE
XT5
   43    46     1     0     0
SMALL
bcc


@<TRIPOS>ATOM
      1 CAA         28.5750   -19.0810   -72.6140 c3       303 XT5      -0.048800
      2 CAC         29.4010   -21.2360   -69.8090 ca       303 XT5      -0.144000
      3 CAD         30.3550   -22.1150   -70.3760 ca       303 XT5      -0.109000
      4 CAE         28.7970   -20.2120   -70.5690 ca       303 XT5      -0.111000
      5 CAF         30.7210   -21.9990   -71.7200 ca       303 XT5      -0.171000
      6 CAG         27.9840   -23.0850   -75.5120 ca       303 XT5      -0.140000
      7 CAH         28.4980   -22.2030   -74.5580 ca       303 XT5      -0.120000
      8 CAI         30.0980   -23.0340   -76.6880 ca       303 XT5      -0.122000
      9 CAJ         26.3970   -25.7110   -76.9640 cc       303 XT5      -0.223600
     10 CAK         23.4740   -26.1510   -75.4170 cx       303 XT5      -0.128400
     11 CAL         23.9890   -27.3820   -75.9440 cx       303 XT5      -0.128400
     12 CAM         28.3880   -24.4090   -77.6390 c3       303 XT5       0.101600
     13 CAQ         29.1710   -20.0960   -71.9070 ca       303 XT5      -0.083300
     14 CAR         28.7820   -23.5040   -76.6040 ca       303 XT5      -0.100300
     15 CAS         30.6180   -22.1460   -75.7420 ca       303 XT5       0.127100
     16 CAT         25.1160   -25.4150   -77.1470 cd       303 XT5       0.295600
     17 CAU         30.1180   -20.9810   -72.4640 ca       303 XT5       0.097100
     18 CAV         29.8240   -21.7180   -74.6610 ca       303 XT5       0.021100
     19 CAW         23.8610   -26.2330   -76.7600 cx       303 XT5      -0.139000
     20 NAN         25.0400   -24.2510   -77.7660 nd       303 XT5      -0.347000
     21 NAO         26.2140   -23.8830   -77.9610 nc       303 XT5      -0.165800
     22 NAX         27.0290   -24.6800   -77.5210 na       303 XT5       0.043400
     23 OAB         31.9090   -21.6650   -75.8520 oh       303 XT5      -0.486100
     24 OAP         30.4360   -20.8300   -73.7770 os       303 XT5      -0.260200
     25 H01         27.6530   -18.7840   -72.1140 hc       303 XT5       0.050033
     26 H02         29.2510   -18.2280   -72.6650 hc       303 XT5       0.050033
     27 H03         28.3460   -19.4250   -73.6230 hc       303 XT5       0.050033
     28 H04         29.1270   -21.3530   -68.7610 ha       303 XT5       0.136000
     29 H05         30.8090   -22.8900   -69.7580 ha       303 XT5       0.136000
     30 H06         28.0650   -19.5370   -70.1260 ha       303 XT5       0.137000
     31 H07         31.4480   -22.6750   -72.1700 ha       303 XT5       0.147000
     32 H08         26.9630   -23.4530   -75.4150 ha       303 XT5       0.136000
     33 H09         27.8710   -21.8850   -73.7250 ha       303 XT5       0.152000
     34 H10         30.7310   -23.3680   -77.5100 ha       303 XT5       0.173000
     35 H11         26.8270   -26.5860   -76.4760 h4       303 XT5       0.188000
     36 H12         23.7300   -25.5040   -74.5780 hc       303 XT5       0.072450
     37 H13         22.4190   -26.0670   -75.1570 hc       303 XT5       0.072450
     38 H14         23.6390   -28.4130   -75.9930 hc       303 XT5       0.072450
     39 H15         24.9760   -27.7370   -75.6460 hc       303 XT5       0.072450
     40 H16         28.9540   -25.3360   -77.5470 h1       303 XT5       0.077200
     41 H17         28.5870   -23.9590   -78.6120 h1       303 XT5       0.077200
     42 H18         23.3900   -26.0640   -77.7280 hc       303 XT5       0.104700
     43 H19         32.1960   -21.3200   -75.0030 ho       303 XT5       0.439000
@<TRIPOS>BOND
     1     1    13 1   
     2     1    25 1   
     3     1    26 1   
     4     1    27 1   
     5     2     3 ar  
     6     2     4 ar  
     7     2    28 1   
     8     3     5 ar  
     9     3    29 1   
    10     4    13 ar  
    11     4    30 1   
    12     5    17 ar  
    13     5    31 1   
    14     6     7 ar  
    15     6    14 ar  
    16     6    32 1   
    17     7    18 ar  
    18     7    33 1   
    19     8    14 ar  
    20     8    15 ar  
    21     8    34 1   
    22     9    16 2   
    23     9    22 1   
    24     9    35 1   
    25    10    11 1   
    26    10    19 1   
    27    10    36 1   
    28    10    37 1   
    29    11    19 1   
    30    11    38 1   
    31    11    39 1   
    32    12    14 1   
    33    12    22 1   
    34    12    40 1   
    35    12    41 1   
    36    13    17 ar  
    37    15    18 ar  
    38    15    23 1   
    39    16    19 1   
    40    16    20 1   
    41    17    24 1   
    42    18    24 1   
    43    19    42 1   
    44    20    21 2   
    45    21    22 1   
    46    23    43 1   
@<TRIPOS>SUBSTRUCTURE
     1 XT5         1 TEMP              0 ****  ****    0 ROOT
