@<TRIPOS>MOLECULE
XT5
   43    46     1     0     0
SMALL
bcc


@<TRIPOS>ATOM
      1 CAA         27.3070   -32.2290   -65.8650 c3       302 XT5      -0.047800
      2 CAC         24.4940   -31.1030   -63.7480 ca       302 XT5      -0.145000
      3 CAD         25.1800   -30.4900   -62.7040 ca       302 XT5      -0.110000
      4 CAE         25.2220   -31.6860   -64.7800 ca       302 XT5      -0.113000
      5 CAF         26.5620   -30.4460   -62.6840 ca       302 XT5      -0.171000
      6 CAG         30.4400   -28.3530   -61.9940 ca       302 XT5      -0.114000
      7 CAH         29.8090   -29.0360   -63.0220 ca       302 XT5      -0.139000
      8 CAI         30.1690   -30.2410   -60.5280 ca       302 XT5      -0.186000
      9 CAJ         29.4060   -27.6670   -57.9750 cc       302 XT5      -0.223600
     10 CAK         27.9210   -24.9410   -56.0430 cx       302 XT5      -0.115900
     11 CAL         28.2050   -26.1860   -55.4310 cx       302 XT5      -0.115900
     12 CAM         31.2660   -28.2130   -59.7030 c3       302 XT5       0.103600
     13 CAQ         26.6260   -31.6530   -64.7760 ca       302 XT5      -0.082300
     14 CAR         30.6260   -28.9290   -60.7370 ca       302 XT5      -0.102300
     15 CAS         29.5320   -30.9260   -61.5540 ca       302 XT5       0.113100
     16 CAT         28.8230   -26.5130   -57.7790 cd       302 XT5       0.297600
     17 CAU         27.3100   -31.0060   -63.7160 ca       302 XT5       0.098100
     18 CAV         29.3470   -30.3160   -62.7910 ca       302 XT5       0.090100
     19 CAW         27.7670   -26.1570   -56.7760 cx       302 XT5      -0.155000
     20 NAN         29.3380   -25.6660   -58.6120 nd       302 XT5      -0.354000
     21 NAO         30.1150   -26.2310   -59.2300 nc       302 XT5      -0.167800
     22 NAX         30.2470   -27.4160   -58.9640 na       302 XT5       0.044400
     23 OAB         29.0400   -32.1750   -61.3860 oh       302 XT5      -0.471100
     24 OAP         28.7020   -31.0100   -63.7580 os       302 XT5      -0.226200
     25 H01         28.3030   -32.5370   -65.5480 hc       302 XT5       0.049367
     26 H02         26.7550   -33.0990   -66.2210 hc       302 XT5       0.049367
     27 H03         27.3920   -31.4980   -66.6690 hc       302 XT5       0.049367
     28 H04         23.4040   -31.1260   -63.7570 ha       302 XT5       0.134000
     29 H05         24.6180   -30.0360   -61.8880 ha       302 XT5       0.135000
     30 H06         24.6970   -32.1740   -65.6010 ha       302 XT5       0.135000
     31 H07         27.0730   -29.9660   -61.8490 ha       302 XT5       0.147000
     32 H08         30.8000   -27.3400   -62.1720 ha       302 XT5       0.157000
     33 H09         29.6800   -28.5690   -63.9980 ha       302 XT5       0.157000
     34 H10         30.3150   -30.7210   -59.5600 ha       302 XT5       0.135000
     35 H11         29.2390   -28.6080   -57.4500 h4       302 XT5       0.188000
     36 H12         28.4700   -24.0110   -56.1950 hc       302 XT5       0.077200
     37 H13         27.0430   -24.3700   -55.7400 hc       302 XT5       0.077200
     38 H14         27.8680   -26.6900   -54.5250 hc       302 XT5       0.077200
     39 H15         29.2350   -26.4560   -55.2000 hc       302 XT5       0.077200
     40 H16         32.0180   -27.5480   -60.1260 h1       302 XT5       0.075700
     41 H17         31.7510   -28.9110   -59.0200 h1       302 XT5       0.075700
     42 H18         26.9500   -26.5890   -57.3550 hc       302 XT5       0.081700
     43 H19         28.9390   -32.3560   -60.4490 ho       302 XT5       0.417000
@<TRIPOS>BOND
     1     1    13 1   
     2     1    25 1   
     3     1    26 1   
     4     1    27 1   
     5     2     3 ar  
     6     2     4 ar  
     7     2    28 1   
     8     3     5 ar  
     9     3    29 1   
    10     4    13 ar  
    11     4    30 1   
    12     5    17 ar  
    13     5    31 1   
    14     6     7 ar  
    15     6    14 ar  
    16     6    32 1   
    17     7    18 ar  
    18     7    33 1   
    19     8    14 ar  
    20     8    15 ar  
    21     8    34 1   
    22     9    16 2   
    23     9    22 1   
    24     9    35 1   
    25    10    11 1   
    26    10    19 1   
    27    10    36 1   
    28    10    37 1   
    29    11    19 1   
    30    11    38 1   
    31    11    39 1   
    32    12    14 1   
    33    12    22 1   
    34    12    40 1   
    35    12    41 1   
    36    13    17 ar  
    37    15    18 ar  
    38    15    23 1   
    39    16    19 1   
    40    16    20 1   
    41    17    24 1   
    42    18    24 1   
    43    19    42 1   
    44    20    21 2   
    45    21    22 1   
    46    23    43 1   
@<TRIPOS>SUBSTRUCTURE
     1 XT5         1 TEMP              0 ****  ****    0 ROOT
