@<TRIPOS>MOLECULE
BSM
   45    47     1     0     0
SMALL
bcc


@<TRIPOS>ATOM
      1 H14         30.0030     9.0410    28.7720 hn         0 BSM       0.348700
      2 H15         33.0210    10.7890    24.7390 ha         0 BSM       0.157000
      3 H06         35.8410     6.9790    25.1840 ha         0 BSM       0.149000
      4 H03         34.7710     4.4720    21.7030 h1         0 BSM       0.047700
      5 H13         33.7770     5.7680    29.3330 hc         0 BSM       0.043700
      6 H04         32.8400     6.5190    22.1310 ha         0 BSM       0.149000
      7 H02         35.8280     5.6010    20.8210 h1         0 BSM       0.047700
      8 H01         34.1540     6.0660    21.2070 h1         0 BSM       0.047700
      9 H08         31.2590     8.0000    29.8800 hn         0 BSM       0.326500
     10 H05         31.1590     7.5850    23.6630 ha         0 BSM       0.143000
     11 H18         28.3060    10.9070    25.3570 ho         0 BSM       0.438000
     12 H17         28.7640    11.8010    22.4080 ha         0 BSM       0.157000
     13 H16         30.0260    13.1210    21.0750 ho         0 BSM       0.426000
     14 H07         34.2090     8.1020    26.6570 ha         0 BSM       0.143000
     15 H11         34.1440     6.0610    31.0500 hc         0 BSM       0.043700
     16 H10         31.9900     6.5750    31.5550 h1         0 BSM       0.063200
     17 H09         31.3500     5.2860    30.4680 h1         0 BSM       0.063200
     18 H12         33.4630     4.4980    30.5400 hc         0 BSM       0.043700
     19 C           35.0300     5.5210    21.5590 c3         0 BSM       0.111700
     20 O           35.4700     6.0780    22.7990 os         0 BSM      -0.323900
     21 C1          34.4740     6.6820    23.5620 ca         0 BSM       0.136100
     22 C2          33.1400     6.8550    23.1240 ca         0 BSM      -0.183000
     23 C3          32.1930     7.4710    23.9890 ca         0 BSM      -0.081500
     24 C4          34.8200     7.1250    24.8320 ca         0 BSM      -0.183000
     25 C5          33.8950     7.7530    25.6730 ca         0 BSM      -0.081500
     26 C6          32.5790     7.9360    25.2640 ca         0 BSM      -0.072000
     27 C7          31.6570     8.5710    26.1310 cc         0 BSM      -0.144300
     28 C8          31.3230     8.1960    27.4090 cd         0 BSM      -0.159900
     29 C9          31.8440     7.0080    28.2280 c          0 BSM       0.695700
     30 O1          32.3840     6.0480    27.7010 o          0 BSM      -0.624100
     31 N           31.6730     7.1410    29.5480 n          0 BSM      -0.549900
     32 C10         32.0460     6.1200    30.5660 c3         0 BSM       0.085000
     33 C11         33.4590     5.5720    30.3570 c3         0 BSM      -0.120100
     34 N1          30.4190     9.0730    27.8520 na         0 BSM       0.034400
     35 N2          30.1470     9.9480    26.9810 nd         0 BSM      -0.498800
     36 C12         30.8870     9.7460    25.8920 cc         0 BSM       0.354800
     37 C13         30.8960    10.5090    24.7240 ca         0 BSM      -0.225500
     38 C14         32.0850    11.0070    24.2240 ca         0 BSM      -0.036000
     39 C15         32.0980    11.7910    23.0590 ca         0 BSM      -0.052600
     40 Cl          33.5840    12.4180    22.4400 cl         0 BSM      -0.070400
     41 C16         30.9090    12.0920    22.4120 ca         0 BSM       0.176100
     42 O2          30.9180    12.8280    21.2740 oh         0 BSM      -0.479100
     43 C17         29.7020    11.5950    22.9230 ca         0 BSM      -0.254000
     44 C18         29.7050    10.8360    24.0920 ca         0 BSM       0.199100
     45 O3          28.5470    10.3880    24.5870 oh         0 BSM      -0.492100
@<TRIPOS>BOND
     1     1    34 1   
     2     2    38 1   
     3     3    24 1   
     4     4    19 1   
     5     5    33 1   
     6     6    22 1   
     7     7    19 1   
     8     8    19 1   
     9     9    31 1   
    10    10    23 1   
    11    11    45 1   
    12    12    43 1   
    13    13    42 1   
    14    14    25 1   
    15    15    33 1   
    16    16    32 1   
    17    17    32 1   
    18    18    33 1   
    19    19    20 1   
    20    20    21 1   
    21    21    22 ar  
    22    21    24 ar  
    23    22    23 ar  
    24    23    26 ar  
    25    24    25 ar  
    26    25    26 ar  
    27    26    27 1   
    28    27    28 2   
    29    27    36 1   
    30    28    29 1   
    31    28    34 1   
    32    29    30 2   
    33    29    31 1   
    34    31    32 1   
    35    32    33 1   
    36    34    35 1   
    37    35    36 2   
    38    36    37 1   
    39    37    38 ar  
    40    37    44 ar  
    41    38    39 ar  
    42    39    40 1   
    43    39    41 ar  
    44    41    42 1   
    45    41    43 ar  
    46    43    44 ar  
    47    44    45 1   
@<TRIPOS>SUBSTRUCTURE
     1 BSM         1 TEMP              0 ****  ****    0 ROOT
