@<TRIPOS>MOLECULE
BSM
   45    47     1     0     0
SMALL
bcc


@<TRIPOS>ATOM
      1 CL25        33.5840    12.4180    22.4400 cl      1224 BSM      -0.070400
      2 N1          30.4190     9.0730    27.8520 na      1224 BSM       0.035400
      3 C2          31.3230     8.1960    27.4090 cc      1224 BSM      -0.161900
      4 C3          31.6570     8.5710    26.1310 cd      1224 BSM      -0.159300
      5 C4          30.8870     9.7460    25.8920 cd      1224 BSM       0.346800
      6 N5          30.1470     9.9480    26.9810 nc      1224 BSM      -0.470800
      7 C6          30.8960    10.5090    24.7240 ca      1224 BSM      -0.225500
      8 C7          32.5790     7.9360    25.2640 ca      1224 BSM      -0.080000
      9 C8          31.8440     7.0080    28.2280 c       1224 BSM       0.693700
     10 O9          32.3840     6.0480    27.7010 o       1224 BSM      -0.621100
     11 N10         31.6730     7.1410    29.5480 n       1224 BSM      -0.547900
     12 C11         32.0850    11.0070    24.2240 ca      1224 BSM      -0.034000
     13 C12         32.0980    11.7910    23.0590 ca      1224 BSM      -0.054600
     14 C13         30.9090    12.0920    22.4120 ca      1224 BSM       0.176100
     15 C14         29.7020    11.5950    22.9230 ca      1224 BSM      -0.252000
     16 C15         29.7050    10.8360    24.0920 ca      1224 BSM       0.196100
     17 C16         33.8950     7.7530    25.6730 ca      1224 BSM      -0.081500
     18 C17         34.8200     7.1250    24.8320 ca      1224 BSM      -0.182000
     19 C18         34.4740     6.6820    23.5620 ca      1224 BSM       0.136100
     20 C19         33.1400     6.8550    23.1240 ca      1224 BSM      -0.182000
     21 C20         32.1930     7.4710    23.9890 ca      1224 BSM      -0.081500
     22 O21         35.4700     6.0780    22.7990 os      1224 BSM      -0.322900
     23 C22         35.0300     5.5210    21.5590 c3      1224 BSM       0.111700
     24 O23         28.5470    10.3880    24.5870 oh      1224 BSM      -0.492100
     25 O24         30.9180    12.8280    21.2740 oh      1224 BSM      -0.479100
     26 C26         32.0460     6.1200    30.5660 c3      1224 BSM       0.083000
     27 C27         33.4590     5.5720    30.3570 c3      1224 BSM      -0.122100
     28 H01         30.0030     9.0410    28.7720 hn      1224 BSM       0.348700
     29 H02         31.2590     8.0000    29.8800 hn      1224 BSM       0.323500
     30 H03         33.0210    10.7890    24.7390 ha      1224 BSM       0.158000
     31 H04         28.7640    11.8010    22.4080 ha      1224 BSM       0.157000
     32 H05         34.2090     8.1020    26.6570 ha      1224 BSM       0.144500
     33 H06         35.8410     6.9790    25.1840 ha      1224 BSM       0.149500
     34 H07         32.8400     6.5190    22.1310 ha      1224 BSM       0.149500
     35 H08         31.1590     7.5850    23.6630 ha      1224 BSM       0.144500
     36 H09         34.1540     6.0660    21.2070 h1      1224 BSM       0.047367
     37 H10         35.8280     5.6010    20.8210 h1      1224 BSM       0.047367
     38 H11         34.7710     4.4720    21.7030 h1      1224 BSM       0.047367
     39 H12         28.3060    10.9070    25.3570 ho      1224 BSM       0.435000
     40 H13         30.0260    13.1210    21.0750 ho      1224 BSM       0.426000
     41 H14         31.3500     5.2860    30.4680 h1      1224 BSM       0.064200
     42 H15         31.9900     6.5750    31.5550 h1      1224 BSM       0.064200
     43 H16         34.1440     6.0610    31.0500 hc      1224 BSM       0.043700
     44 H17         33.4630     4.4980    30.5400 hc      1224 BSM       0.043700
     45 H18         33.7770     5.7680    29.3330 hc      1224 BSM       0.043700
@<TRIPOS>BOND
     1     1    13 1   
     2     2     3 1   
     3     2     6 1   
     4     2    28 1   
     5     3     4 2   
     6     3     9 1   
     7     4     5 1   
     8     4     8 1   
     9     5     6 2   
    10     5     7 1   
    11     7    12 ar  
    12     7    16 ar  
    13     8    17 ar  
    14     8    21 ar  
    15     9    10 2   
    16     9    11 1   
    17    11    26 1   
    18    11    29 1   
    19    12    13 ar  
    20    12    30 1   
    21    13    14 ar  
    22    14    15 ar  
    23    14    25 1   
    24    15    16 ar  
    25    15    31 1   
    26    16    24 1   
    27    17    18 ar  
    28    17    32 1   
    29    18    19 ar  
    30    18    33 1   
    31    19    20 ar  
    32    19    22 1   
    33    20    21 ar  
    34    20    34 1   
    35    21    35 1   
    36    22    23 1   
    37    23    36 1   
    38    23    37 1   
    39    23    38 1   
    40    24    39 1   
    41    25    40 1   
    42    26    27 1   
    43    26    41 1   
    44    26    42 1   
    45    27    43 1   
    46    27    44 1   
    47    27    45 1   
@<TRIPOS>SUBSTRUCTURE
     1 BSM         1 TEMP              0 ****  ****    0 ROOT
