@<TRIPOS>MOLECULE
6GC
   50    52     1     0     0
SMALL
bcc


@<TRIPOS>ATOM
      1 C1           0.0920    38.0230   -24.6890 ca       301 6GC      -0.078000
      2 C2          -0.3750    33.1730   -23.1650 ca       301 6GC       0.210100
      3 C3          -1.6520    33.4700   -23.6440 ca       301 6GC      -0.321000
      4 C4          -1.7920    34.2600   -24.7860 ca       301 6GC       0.220100
      5 C5          -0.5900    34.7380   -25.4770 ca       301 6GC      -0.185900
      6 C6           0.6470    34.4260   -24.9860 ca       301 6GC       0.004000
      7 C7           0.8110    33.6700   -23.8650 ca       301 6GC      -0.199600
      8 C8          -0.6750    35.6050   -26.6490 cc       301 6GC       0.441500
      9 N9          -1.4020    35.3850   -27.7800 nd       301 6GC      -0.489300
     10 N10         -0.1200    36.8410   -26.7620 n        301 6GC      -0.312500
     11 O11         -3.0020    34.5790   -25.3110 oh       301 6GC      -0.468100
     12 O12         -0.2020    32.4230   -22.0540 oh       301 6GC      -0.484100
     13 N13         -1.1860    36.5170   -28.5790 n        301 6GC      -0.258900
     14 C14         -0.4010    37.3680   -27.9300 c        301 6GC       0.740500
     15 O15          0.0000    38.5170   -28.3110 o        301 6GC      -0.589500
     16 C16          0.6420    37.4450   -25.8300 ca       301 6GC       0.014600
     17 C17          2.1030    37.5390   -25.9060 ca       301 6GC       0.126900
     18 C18          2.8460    38.1470   -24.8930 ca       301 6GC      -0.152000
     19 C19          2.2100    38.6950   -23.7750 ca       301 6GC      -0.090000
     20 C20          2.2490    33.3670   -23.5020 c        301 6GC       0.692700
     21 N21          2.7550    32.1640   -23.8240 n        301 6GC      -0.465800
     22 O22          2.9340    34.2370   -23.0180 o        301 6GC      -0.604100
     23 C23          4.2020    31.7900   -23.7930 c3       301 6GC       0.093000
     24 C24          4.8600    32.0010   -25.1690 c3       301 6GC      -0.099400
     25 C25          0.8290    38.6250   -23.6700 ca       301 6GC      -0.142000
     26 C26          1.8890    31.0690   -24.2290 c3       301 6GC       0.085300
     27 C27          6.9100    31.5660   -26.5190 c3       301 6GC      -0.092100
     28 C28          6.0860    31.1070   -25.3450 c3       301 6GC      -0.079400
     29 F29          2.6690    37.0180   -27.0030 f        301 6GC      -0.136900
     30 H1          -0.9830    37.9670   -24.5660 ha       301 6GC       0.154000
     31 H2          -2.5290    33.1070   -23.1210 ha       301 6GC       0.144000
     32 H3           2.7910    39.1770   -22.9990 ha       301 6GC       0.144000
     33 H4           5.1570    33.0470   -25.2720 hc       301 6GC       0.047200
     34 H5           4.1360    31.7810   -25.9550 hc       301 6GC       0.047200
     35 H6           6.3240    31.5230   -27.4000 hc       301 6GC       0.033700
     36 H7           7.7540    30.9350   -26.6250 hc       301 6GC       0.033700
     37 H8           7.2320    32.5620   -26.3570 hc       301 6GC       0.033700
     38 H9           1.5250    34.7910   -25.5050 ha       301 6GC       0.167000
     39 H10         -3.7020    34.2030   -24.7600 ho       301 6GC       0.427000
     40 H11         -1.0650    32.1670   -21.7000 ho       301 6GC       0.428000
     41 H12         -1.6400    36.5160   -29.5140 hn       301 6GC       0.340500
     42 H13          3.9230    38.2140   -24.9840 ha       301 6GC       0.157000
     43 H14          4.3000    30.7430   -23.5000 h1       301 6GC       0.059200
     44 H15          4.7180    32.3970   -23.0460 h1       301 6GC       0.059200
     45 H16          0.3270    39.0430   -22.8070 ha       301 6GC       0.142000
     46 H17          1.3490    31.3470   -25.0960 h1       301 6GC       0.041033
     47 H18          1.2100    30.8480   -23.4470 h1       301 6GC       0.041033
     48 H19          2.4770    30.2130   -24.4380 h1       301 6GC       0.041033
     49 H20          5.7670    30.0750   -25.5040 hc       301 6GC       0.040200
     50 H21          6.6940    31.1370   -24.4380 hc       301 6GC       0.040200
@<TRIPOS>BOND
     1     1    16 ar  
     2     1    25 ar  
     3     1    30 1   
     4     2     3 ar  
     5     2     7 ar  
     6     2    12 1   
     7     3     4 ar  
     8     3    31 1   
     9     4     5 ar  
    10     4    11 1   
    11     5     6 ar  
    12     5     8 1   
    13     6     7 ar  
    14     6    38 1   
    15     7    20 1   
    16     8     9 2   
    17     8    10 1   
    18     9    13 1   
    19    10    14 1   
    20    10    16 1   
    21    11    39 1   
    22    12    40 1   
    23    13    14 1   
    24    13    41 1   
    25    14    15 2   
    26    16    17 ar  
    27    17    18 ar  
    28    17    29 1   
    29    18    19 ar  
    30    18    42 1   
    31    19    25 ar  
    32    19    32 1   
    33    20    21 1   
    34    20    22 2   
    35    21    23 1   
    36    21    26 1   
    37    23    24 1   
    38    23    43 1   
    39    23    44 1   
    40    24    28 1   
    41    24    33 1   
    42    24    34 1   
    43    25    45 1   
    44    26    46 1   
    45    26    47 1   
    46    26    48 1   
    47    27    28 1   
    48    27    35 1   
    49    27    36 1   
    50    27    37 1   
    51    28    49 1   
    52    28    50 1   
@<TRIPOS>SUBSTRUCTURE
     1 6GC         1 TEMP              0 ****  ****    0 ROOT
