@<TRIPOS>MOLECULE
YKJ
   50    55     1     0     0
SMALL
bcc


@<TRIPOS>ATOM
      1 C1          13.1630    14.5080    26.3330 ca      1224 YKJ       0.362200
      2 N1          12.9200    14.6840    27.6900 nb      1224 YKJ      -0.653000
      3 C2          11.5990    14.7380    28.1430 ca      1224 YKJ       0.405200
      4 N2           9.1460    14.6310    27.3570 na      1224 YKJ      -0.266300
      5 C3          12.1340    14.3720    25.3770 ca      1224 YKJ      -0.179300
      6 N3           9.6160    14.3480    25.2220 nc      1224 YKJ      -0.548100
      7 C4           8.6090    14.4700    26.1120 cd      1224 YKJ       0.477400
      8 N4           3.3120    11.8590    24.7590 n       1224 YKJ      -0.558900
      9 C5          10.8140    14.4330    25.8440 ca      1224 YKJ       0.088400
     10 N5          -1.4130    10.5800    26.2210 nb      1224 YKJ      -0.709000
     11 C6          10.5250    14.6120    27.2460 ca      1224 YKJ      -0.204500
     12 N6          -0.0740     9.5580    27.8070 nh      1224 YKJ      -0.925500
     13 C7           7.2530    14.4660    25.8850 ca      1224 YKJ      -0.108900
     14 C8           4.3870    14.7330    25.5160 ca      1224 YKJ      -0.084000
     15 C9           5.0990    15.7030    26.2880 ca      1224 YKJ      -0.135000
     16 C10          6.5120    15.5570    26.4570 ca      1224 YKJ      -0.091000
     17 C11          2.2180    11.7290    24.0010 c       1224 YKJ       0.669700
     18 C12          0.8680    11.3390    24.7660 ca      1224 YKJ      -0.067600
     19 O13          2.1940    11.8880    22.7780 o       1224 YKJ      -0.592100
     20 C14         -0.4190    11.6970    24.2800 ca      1224 YKJ      -0.248300
     21 C15         -1.5390    11.2950    25.0410 ca      1224 YKJ       0.433200
     22 C16          4.5710    12.6170    24.1690 c3      1224 YKJ       0.193300
     23 C17          5.0980    13.6430    24.9460 ca      1224 YKJ      -0.118300
     24 C18          6.5020    13.4600    25.0980 cp      1224 YKJ       0.003000
     25 C19          5.6260    11.6830    23.7870 ca      1224 YKJ      -0.106300
     26 C20          6.8450    12.2630    24.3910 cp      1224 YKJ      -0.047000
     27 C21          8.0800    11.5530    24.1790 ca      1224 YKJ      -0.097000
     28 C22          8.1310    10.3300    23.4080 ca      1224 YKJ      -0.127000
     29 C23          6.9300     9.7960    22.8360 ca      1224 YKJ      -0.123000
     30 C24          5.6890    10.4860    23.0320 ca      1224 YKJ      -0.106000
     31 C25          1.0380    10.5970    25.9870 ca      1224 YKJ      -0.282300
     32 C26         -0.1470    10.2460    26.6690 ca      1224 YKJ       0.627200
     33 H01         14.1970    14.4730    25.9910 h4      1224 YKJ       0.024100
     34 H02         11.3990    14.8800    29.2050 h4      1224 YKJ       0.024100
     35 H03          8.6240    14.7450    28.2140 hn      1224 YKJ       0.313700
     36 H04         12.3560    14.2260    24.3200 ha      1224 YKJ       0.159000
     37 H05          3.3350    11.4790    25.6950 hn      1224 YKJ       0.321500
     38 H06          0.8260     9.2900    28.1780 hn      1224 YKJ       0.407300
     39 H07         -0.9190     9.3050    28.2990 hn      1224 YKJ       0.407300
     40 H08          3.3120    14.8290    25.3660 ha      1224 YKJ       0.147000
     41 H09          4.5720    16.5430    26.7420 ha      1224 YKJ       0.142000
     42 H10          7.0480    16.3030    27.0430 ha      1224 YKJ       0.149000
     43 H11         -0.5370    12.2610    23.3550 ha      1224 YKJ       0.164000
     44 H12         -2.5370    11.5560    24.6880 h4      1224 YKJ       0.028100
     45 H13          4.1680    13.1180    23.2890 h1      1224 YKJ       0.121700
     46 H14          9.0000    11.9470    24.6110 ha      1224 YKJ       0.147000
     47 H15          9.0810     9.8160    23.2620 ha      1224 YKJ       0.138000
     48 H16          6.9600     8.8730    22.2570 ha      1224 YKJ       0.136000
     49 H17          4.7770    10.0820    22.5920 ha      1224 YKJ       0.143000
     50 H18          2.0230    10.3220    26.3630 ha      1224 YKJ       0.146000
@<TRIPOS>BOND
     1     1     2 ar  
     2     1     5 ar  
     3     1    33 1   
     4     2     3 ar  
     5     3    11 ar  
     6     3    34 1   
     7     4     7 1   
     8     4    11 1   
     9     4    35 1   
    10     5     9 ar  
    11     5    36 1   
    12     6     7 2   
    13     6     9 1   
    14     7    13 1   
    15     8    17 1   
    16     8    22 1   
    17     8    37 1   
    18     9    11 ar  
    19    10    21 ar  
    20    10    32 ar  
    21    12    32 1   
    22    12    38 1   
    23    12    39 1   
    24    13    16 ar  
    25    13    24 ar  
    26    14    15 ar  
    27    14    23 ar  
    28    14    40 1   
    29    15    16 ar  
    30    15    41 1   
    31    16    42 1   
    32    17    18 1   
    33    17    19 2   
    34    18    20 ar  
    35    18    31 ar  
    36    20    21 ar  
    37    20    43 1   
    38    21    44 1   
    39    22    23 1   
    40    22    25 1   
    41    22    45 1   
    42    23    24 ar  
    43    24    26 1   
    44    25    26 ar  
    45    25    30 ar  
    46    26    27 ar  
    47    27    28 ar  
    48    27    46 1   
    49    28    29 ar  
    50    28    47 1   
    51    29    30 ar  
    52    29    48 1   
    53    30    49 1   
    54    31    32 ar  
    55    31    50 1   
@<TRIPOS>SUBSTRUCTURE
     1 YKJ         1 TEMP              0 ****  ****    0 ROOT
