@<TRIPOS>MOLECULE
YKJ
   50    55     1     0     0
SMALL
bcc


@<TRIPOS>ATOM
      1 C1          13.1520    14.4950    26.2760 ca      1224 YKJ       0.362200
      2 N1          12.9260    14.6720    27.6520 nb      1224 YKJ      -0.653000
      3 C2          11.6030    14.7360    28.1440 ca      1224 YKJ       0.405200
      4 N2           9.1350    14.6340    27.3730 na      1224 YKJ      -0.266300
      5 C3          12.1050    14.3630    25.3320 ca      1224 YKJ      -0.179300
      6 N3           9.5920    14.3510    25.2370 nc      1224 YKJ      -0.548100
      7 C4           8.5930    14.4740    26.1330 cd      1224 YKJ       0.477400
      8 N4           3.3040    11.8800    24.7550 n       1224 YKJ      -0.557900
      9 C5          10.7850    14.4320    25.8350 ca      1224 YKJ       0.088400
     10 N5          -1.4040    10.6120    26.1590 nb      1224 YKJ      -0.712000
     11 C6          10.5070    14.6120    27.2580 ca      1224 YKJ      -0.204500
     12 N6          -2.5420    11.6300    24.4050 nh      1224 YKJ      -0.928500
     13 C7           7.2490    14.4620    25.8820 ca      1224 YKJ      -0.108900
     14 C8           4.3600    14.7540    25.4810 ca      1224 YKJ      -0.084000
     15 C9           5.0760    15.7290    26.2640 ca      1224 YKJ      -0.135000
     16 C10          6.5000    15.5720    26.4450 ca      1224 YKJ      -0.091000
     17 C11          2.2150    11.7190    23.9890 c       1224 YKJ       0.670700
     18 C12          1.0530    11.2340    24.9200 ca      1224 YKJ      -0.065600
     19 O13          2.1780    11.9140    22.7590 o       1224 YKJ      -0.596100
     20 C14          1.0640    10.5310    26.1700 ca      1224 YKJ      -0.280300
     21 C15         -0.1930    10.2330    26.7690 ca      1224 YKJ       0.435200
     22 C16          4.5600    12.6250    24.1380 c3      1224 YKJ       0.193300
     23 C17          5.0830    13.6370    24.9110 ca      1224 YKJ      -0.118300
     24 C18          6.5020    13.4500    25.0750 cp      1224 YKJ       0.003000
     25 C19          5.6080    11.6790    23.7630 ca      1224 YKJ      -0.107300
     26 C20          6.8400    12.2450    24.3800 cp      1224 YKJ      -0.048000
     27 C21          8.0900    11.5090    24.1700 ca      1224 YKJ      -0.098000
     28 C22          8.1340    10.2650    23.3910 ca      1224 YKJ      -0.127000
     29 C23          6.9060     9.7460    22.8080 ca      1224 YKJ      -0.123000
     30 C24          5.6620    10.4630    23.0010 ca      1224 YKJ      -0.105000
     31 C25         -0.1780    11.6410    24.2640 ca      1224 YKJ      -0.256300
     32 C26         -1.3830    11.2970    24.9400 ca      1224 YKJ       0.632200
     33 H01         14.1810    14.4580    25.9190 h4      1224 YKJ       0.024100
     34 H02         11.4260    14.8810    29.2100 h4      1224 YKJ       0.024100
     35 H03          8.6170    14.7490    28.2320 hn      1224 YKJ       0.313700
     36 H04         12.3060    14.2160    24.2710 ha      1224 YKJ       0.159000
     37 H05          3.3240    11.5340    25.7040 hn      1224 YKJ       0.321500
     38 H06         -2.5680    12.1250    23.5250 hn      1224 YKJ       0.412300
     39 H07         -3.4030    11.3900    24.8760 hn      1224 YKJ       0.412300
     40 H08          3.2870    14.8560    25.3200 ha      1224 YKJ       0.148000
     41 H09          4.5510    16.5720    26.7130 ha      1224 YKJ       0.142000
     42 H10          7.0360    16.3190    27.0300 ha      1224 YKJ       0.148000
     43 H11          2.0000    10.2360    26.6440 ha      1224 YKJ       0.147000
     44 H12         -0.2180     9.7000    27.7200 h4      1224 YKJ       0.026100
     45 H13          4.1680    13.1160    23.2470 h1      1224 YKJ       0.121700
     46 H14          9.0120    11.8960    24.6040 ha      1224 YKJ       0.147000
     47 H15          9.0770     9.7360    23.2510 ha      1224 YKJ       0.138000
     48 H16          6.9220     8.8230    22.2290 ha      1224 YKJ       0.136000
     49 H17          4.7470    10.0710    22.5580 ha      1224 YKJ       0.144000
     50 H18         -0.1790    12.1760    23.3140 ha      1224 YKJ       0.163000
@<TRIPOS>BOND
     1     1     2 ar  
     2     1     5 ar  
     3     1    33 1   
     4     2     3 ar  
     5     3    11 ar  
     6     3    34 1   
     7     4     7 1   
     8     4    11 1   
     9     4    35 1   
    10     5     9 ar  
    11     5    36 1   
    12     6     7 2   
    13     6     9 1   
    14     7    13 1   
    15     8    17 1   
    16     8    22 1   
    17     8    37 1   
    18     9    11 ar  
    19    10    21 ar  
    20    10    32 ar  
    21    12    32 1   
    22    12    38 1   
    23    12    39 1   
    24    13    16 ar  
    25    13    24 ar  
    26    14    15 ar  
    27    14    23 ar  
    28    14    40 1   
    29    15    16 ar  
    30    15    41 1   
    31    16    42 1   
    32    17    18 1   
    33    17    19 2   
    34    18    20 ar  
    35    18    31 ar  
    36    20    21 ar  
    37    20    43 1   
    38    21    44 1   
    39    22    23 1   
    40    22    25 1   
    41    22    45 1   
    42    23    24 ar  
    43    24    26 1   
    44    25    26 ar  
    45    25    30 ar  
    46    26    27 ar  
    47    27    28 ar  
    48    27    46 1   
    49    28    29 ar  
    50    28    47 1   
    51    29    30 ar  
    52    29    48 1   
    53    30    49 1   
    54    31    32 ar  
    55    31    50 1   
@<TRIPOS>SUBSTRUCTURE
     1 YKJ         1 TEMP              0 ****  ****    0 ROOT
