REMARK  Name = /web/media/ligands/5J20_ligand.pdb
REMARK  5 active torsions:
REMARK  status: ('A' for Active; 'I' for Inactive)
REMARK    1  A    between atoms: C_4  and  C_9
REMARK    2  A    between atoms: C_5  and  C_13
REMARK    3  A    between atoms: C_7  and  N_16
REMARK    4  A    between atoms: C_10  and  C_25
REMARK    5  A    between atoms: N_23  and  C_25
REMARK                            x       y       z     vdW  Elec       q    Type
REMARK                         _______ _______ _______ _____ _____    ______ ____
ROOT
ATOM      1  C   UNL     1      -0.309  33.451  23.717  0.00  0.00    +0.076 A 
ATOM      2  C   UNL     1      -1.495  32.964  24.296  0.00  0.00    +0.202 A 
ATOM      3  O   UNL     1      -2.691  33.300  23.723  0.00  0.00    -0.286 OA
ATOM      4  C   UNL     1      -1.453  32.235  25.502  0.00  0.00    +0.084 A 
ATOM      5  C   UNL     1      -0.197  31.890  26.058  0.00  0.00    +0.203 A 
ATOM      6  C   UNL     1       0.997  32.359  25.462  0.00  0.00    +0.093 A 
ATOM      7  O   UNL     1      -0.097  31.169  27.192  0.00  0.00    -0.286 OA
ATOM      8  C   UNL     1       0.931  33.095  24.268  0.00  0.00    +0.014 A 
ENDROOT
BRANCH   1  10
ATOM      9  N   UNL     1       0.283  35.560  22.463  0.00  0.00    -0.238 N 
ATOM     10  C   UNL     1      -0.344  34.322  22.515  0.00  0.00    +0.176 A 
ATOM     11  N   UNL     1      -0.953  34.086  21.365  0.00  0.00    -0.125 NA
ATOM     12  N   UNL     1      -0.704  35.194  20.537  0.00  0.00    -0.088 NA
ATOM     13  C   UNL     1       0.044  36.077  21.244  0.00  0.00    +0.373 A 
ATOM     14  O   UNL     1       0.423  37.188  20.877  0.00  0.00    -0.242 OA
BRANCH   9  16
ATOM     15  C   UNL     1       0.172  36.969  24.466  0.00  0.00    +0.020 A 
ATOM     16  C   UNL     1       0.929  36.218  23.548  0.00  0.00    +0.097 A 
ATOM     17  C   UNL     1       2.317  36.136  23.745  0.00  0.00    +0.156 A 
ATOM     18  F   UNL     1       3.053  35.430  22.863  0.00  0.00    -0.203 F 
ATOM     19  C   UNL     1       2.937  36.783  24.823  0.00  0.00    +0.031 A 
ATOM     20  C   UNL     1       2.170  37.527  25.724  0.00  0.00    +0.002 A 
ATOM     21  C   UNL     1       0.799  37.606  25.540  0.00  0.00    +0.002 A 
ENDBRANCH   9  16
ENDBRANCH   1  10
BRANCH   6  22
ATOM     22  C   UNL     1       2.370  31.979  25.900  0.00  0.00    +0.253 C 
ATOM     23  N   UNL     1       2.940  30.798  25.507  0.00  0.00    -0.267 N 
ATOM     24  C   UNL     1       2.197  29.730  24.840  0.00  0.00    +0.116 C 
ATOM     25  O   UNL     1       3.026  32.814  26.503  0.00  0.00    -0.270 OA
BRANCH  23  26
ATOM     26  C   UNL     1       4.347  30.492  25.833  0.00  0.00    +0.159 C 
BRANCH  26  27
ATOM     27  C   UNL     1       5.121  30.343  24.541  0.00  0.00    +0.143 A 
ATOM     28  O   UNL     1       5.276  31.304  23.601  0.00  0.00    -0.453 OA
ATOM     29  C   UNL     1       6.021  30.824  22.596  0.00  0.00    +0.179 A 
ATOM     30  C   UNL     1       6.332  29.535  22.875  0.00  0.00    +0.043 A 
ATOM     31  C   UNL     1       5.763  29.222  24.136  0.00  0.00    +0.038 A 
ENDBRANCH  26  27
ENDBRANCH  23  26
ENDBRANCH   6  22
TORSDOF 5
