@<TRIPOS>MOLECULE
/web/media/ligands/5J20_ligand.pdb
 31 34 0 0 0
SMALL
GASTEIGER

@<TRIPOS>ATOM
      1 C           0.1720   36.9690   24.4660 C.ar    1  UNL1        0.0200
      2 C          -0.1970   31.8900   26.0580 C.ar    1  UNL1        0.2032
      3 C          -1.4530   32.2350   25.5020 C.ar    1  UNL1        0.0843
      4 C           0.9970   32.3590   25.4620 C.ar    1  UNL1        0.0927
      5 C          -0.3440   34.3220   22.5150 C.ar    1  UNL1        0.1759
      6 C           0.0440   36.0770   21.2440 C.ar    1  UNL1        0.3730
      7 C           0.9290   36.2180   23.5480 C.ar    1  UNL1        0.0971
      8 C           2.1700   37.5270   25.7240 C.ar    1  UNL1        0.0024
      9 C           2.3700   31.9790   25.9000 C.2     1  UNL1        0.2525
     10 C           5.1210   30.3430   24.5410 C.ar    1  UNL1        0.1430
     11 C           5.7630   29.2220   24.1360 C.ar    1  UNL1        0.0379
     12 C          -1.4950   32.9640   24.2960 C.ar    1  UNL1        0.2018
     13 C          -0.3090   33.4510   23.7170 C.ar    1  UNL1        0.0756
     14 C           0.9310   33.0950   24.2680 C.ar    1  UNL1        0.0140
     15 N          -0.9530   34.0860   21.3650 N.ar    1  UNL1       -0.1254
     16 N           0.2830   35.5600   22.4630 N.ar    1  UNL1       -0.2385
     17 O          -2.6910   33.3000   23.7230 O.3     1  UNL1       -0.2864
     18 O          -0.0970   31.1690   27.1920 O.3     1  UNL1       -0.2863
     19 N          -0.7040   35.1940   20.5370 N.ar    1  UNL1       -0.0879
     20 O           0.4230   37.1880   20.8770 O.2     1  UNL1       -0.2424
     21 C           2.3170   36.1360   23.7450 C.ar    1  UNL1        0.1563
     22 C           2.9370   36.7830   24.8230 C.ar    1  UNL1        0.0311
     23 N           2.9400   30.7980   25.5070 N.am    1  UNL1       -0.2672
     24 O           3.0260   32.8140   26.5030 O.2     1  UNL1       -0.2698
     25 C           4.3470   30.4920   25.8330 C.3     1  UNL1        0.1585
     26 C           0.7990   37.6060   25.5400 C.ar    1  UNL1        0.0016
     27 C           2.1970   29.7300   24.8400 C.3     1  UNL1        0.1156
     28 O           5.2760   31.3040   23.6010 O.2     1  UNL1       -0.4530
     29 C           6.0210   30.8240   22.5960 C.ar    1  UNL1        0.1792
     30 C           6.3320   29.5350   22.8750 C.ar    1  UNL1        0.0435
     31 F           3.0530   35.4300   22.8630 F       1  UNL1       -0.2026
@<TRIPOS>BOND
     1     1    26   ar
     2     2    18    1
     3     3     2   ar
     4     4     9    1
     5     4     2   ar
     6     5    13    1
     7     6    16   ar
     8     7    21   ar
     9     7     1   ar
    10     9    24    2
    11    10    25    1
    12    11    10   ar
    13    12     3   ar
    14    13    14   ar
    15    13    12   ar
    16    14     4   ar
    17    15     5   ar
    18    16     5   ar
    19    16     7    1
    20    17    12    1
    21    19     6   ar
    22    19    15   ar
    23    20     6    2
    24    21    22   ar
    25    22     8   ar
    26    23    25    1
    27    23     9   am
    28    26     8   ar
    29    27    23    1
    30    28    10   ar
    31    29    30   ar
    32    29    28   ar
    33    30    11   ar
    34    31    21    1
