REMARK  Name = /web/media/ligands/5J9X_ligand.pdb
REMARK  10 active torsions:
REMARK  status: ('A' for Active; 'I' for Inactive)
REMARK    1  A    between atoms: C_2  and  O_18
REMARK    2  A    between atoms: C_4  and  C_9
REMARK    3  A    between atoms: C_5  and  C_13
REMARK    4  A    between atoms: C_7  and  N_16
REMARK    5  A    between atoms: C_10  and  C_25
REMARK    6  A    between atoms: C_10  and  C_28
REMARK    7  A    between atoms: C_11  and  C_28
REMARK    8  A    between atoms: C_12  and  O_17
REMARK    9  A    between atoms: N_23  and  C_25
REMARK   10  A    between atoms: N_23  and  C_27
REMARK                            x       y       z     vdW  Elec       q    Type
REMARK                         _______ _______ _______ _____ _____    ______ ____
ROOT
ATOM      1  C   UNL     1      -0.590  34.738 -25.477  0.00  0.00    +0.062 A 
ATOM      2  C   UNL     1      -1.792  34.260 -24.786  0.00  0.00    +0.131 A 
ATOM      3  C   UNL     1      -1.652  33.470 -23.644  0.00  0.00    +0.092 A 
ATOM      4  C   UNL     1      -0.375  33.173 -23.165  0.00  0.00    +0.132 A 
ATOM      5  C   UNL     1       0.811  33.670 -23.865  0.00  0.00    +0.079 A 
ATOM      6  C   UNL     1       0.647  34.426 -24.986  0.00  0.00    +0.032 A 
ENDROOT
BRANCH   1   8
ATOM      7  N   UNL     1      -0.120  36.841 -26.762  0.00  0.00    -0.241 N 
ATOM      8  C   UNL     1      -0.675  35.605 -26.649  0.00  0.00    +0.173 A 
ATOM      9  N   UNL     1      -1.402  35.385 -27.780  0.00  0.00    -0.151 NA
ATOM     10  N   UNL     1      -1.186  36.517 -28.579  0.00  0.00    -0.226 N 
ATOM     11  H   UNL     1      -1.640  36.516 -29.514  0.00  0.00    +0.194 HD
ATOM     12  C   UNL     1      -0.401  37.368 -27.930  0.00  0.00    +0.349 A 
ATOM     13  O   UNL     1       0.000  38.517 -28.311  0.00  0.00    -0.245 OA
BRANCH   7  15
ATOM     14  C   UNL     1       0.092  38.023 -24.689  0.00  0.00    +0.029 A 
ATOM     15  C   UNL     1       0.642  37.445 -25.830  0.00  0.00    +0.088 A 
ATOM     16  C   UNL     1       2.103  37.539 -25.906  0.00  0.00    +0.147 A 
ATOM     17  F   UNL     1       2.669  37.018 -27.003  0.00  0.00    -0.203 F 
ATOM     18  C   UNL     1       2.846  38.147 -24.893  0.00  0.00    +0.040 A 
ATOM     19  C   UNL     1       2.210  38.695 -23.775  0.00  0.00    +0.003 A 
ATOM     20  C   UNL     1       0.829  38.625 -23.670  0.00  0.00    +0.002 A 
ENDBRANCH   7  15
ENDBRANCH   1   8
BRANCH   5  21
ATOM     21  C   UNL     1       2.249  33.367 -23.502  0.00  0.00    +0.250 C 
ATOM     22  N   UNL     1       2.755  32.164 -23.824  0.00  0.00    -0.300 N 
ATOM     23  C   UNL     1       1.889  31.069 -24.229  0.00  0.00    +0.132 C 
ATOM     24  O   UNL     1       2.934  34.237 -23.018  0.00  0.00    -0.270 OA
BRANCH  22  25
ATOM     25  C   UNL     1       4.202  31.790 -23.793  0.00  0.00    +0.108 C 
BRANCH  25  26
ATOM     26  C   UNL     1       4.860  32.001 -25.169  0.00  0.00    +0.019 C 
BRANCH  26  27
ATOM     27  C   UNL     1       6.086  31.107 -25.345  0.00  0.00    -0.002 C 
ATOM     28  C   UNL     1       6.910  31.566 -26.519  0.00  0.00    +0.004 C 
ENDBRANCH  26  27
ENDBRANCH  25  26
ENDBRANCH  22  25
ENDBRANCH   5  21
BRANCH   2  29
ATOM     29  O   UNL     1      -3.002  34.579 -25.311  0.00  0.00    -0.506 OA
ATOM     30  H   UNL     1      -3.702  34.203 -24.760  0.00  0.00    +0.292 HD
ENDBRANCH   2  29
BRANCH   4  31
ATOM     31  O   UNL     1      -0.202  32.423 -22.054  0.00  0.00    -0.506 OA
ATOM     32  H   UNL     1      -1.065  32.167 -21.700  0.00  0.00    +0.292 HD
ENDBRANCH   4  31
TORSDOF 8
