@<TRIPOS>MOLECULE
/web/media/ligands/5J9X_ligand.pdb
 50 52 0 0 0
SMALL
GASTEIGER

@<TRIPOS>ATOM
      1 C           0.0920   38.0230  -24.6890 C.ar    1  UNL1       -0.0348
      2 C          -0.3750   33.1730  -23.1650 C.ar    1  UNL1        0.1325
      3 C          -1.6520   33.4700  -23.6440 C.ar    1  UNL1        0.0228
      4 C           0.8110   33.6700  -23.8650 C.ar    1  UNL1        0.0791
      5 C          -0.6750   35.6050  -26.6490 C.ar    1  UNL1        0.1728
      6 C          -0.4010   37.3680  -27.9300 C.ar    1  UNL1        0.3490
      7 C           0.6420   37.4450  -25.8300 C.ar    1  UNL1        0.0881
      8 C           2.2100   38.6950  -23.7750 C.ar    1  UNL1       -0.0589
      9 C           2.2490   33.3670  -23.5020 C.2     1  UNL1        0.2499
     10 C           4.8600   32.0010  -25.1690 C.3     1  UNL1       -0.0374
     11 C           6.9100   31.5660  -26.5190 C.3     1  UNL1       -0.0652
     12 C          -1.7920   34.2600  -24.7860 C.ar    1  UNL1        0.1310
     13 C          -0.5900   34.7380  -25.4770 C.ar    1  UNL1        0.0619
     14 C           0.6470   34.4260  -24.9860 C.ar    1  UNL1       -0.0319
     15 N          -1.4020   35.3850  -27.7800 N.ar    1  UNL1       -0.1507
     16 N          -0.1200   36.8410  -26.7620 N.ar    1  UNL1       -0.2408
     17 O          -3.0020   34.5790  -25.3110 O.3     1  UNL1       -0.5059
     18 O          -0.2020   32.4230  -22.0540 O.3     1  UNL1       -0.5059
     19 N          -1.1860   36.5170  -28.5790 N.ar    1  UNL1       -0.2260
     20 O           0.0000   38.5170  -28.3110 O.2     1  UNL1       -0.2446
     21 C           2.1030   37.5390  -25.9060 C.ar    1  UNL1        0.1473
     22 C           2.8460   38.1470  -24.8930 C.ar    1  UNL1       -0.0244
     23 N           2.7550   32.1640  -23.8240 N.am    1  UNL1       -0.3005
     24 O           2.9340   34.2370  -23.0180 O.2     1  UNL1       -0.2699
     25 C           4.2020   31.7900  -23.7930 C.3     1  UNL1        0.0147
     26 C           0.8290   38.6250  -23.6700 C.ar    1  UNL1       -0.0596
     27 C           1.8890   31.0690  -24.2290 C.3     1  UNL1        0.0035
     28 C           6.0860   31.1070  -25.3450 C.3     1  UNL1       -0.0545
     29 F           2.6690   37.0180  -27.0030 F       1  UNL1       -0.2033
     30 H          -0.9830   37.9670  -24.5660 H       1  UNL1        0.0639
     31 H          -2.5290   33.1070  -23.1210 H       1  UNL1        0.0691
     32 H           2.7910   39.1770  -22.9990 H       1  UNL1        0.0618
     33 H           5.1570   33.0470  -25.2720 H       1  UNL1        0.0280
     34 H           4.1360   31.7810  -25.9550 H       1  UNL1        0.0280
     35 H           6.3240   31.5230  -27.4000 H       1  UNL1        0.0230
     36 H           7.7540   30.9350  -26.6250 H       1  UNL1        0.0230
     37 H           7.2320   32.5620  -26.3570 H       1  UNL1        0.0230
     38 H           1.5250   34.7910  -25.5050 H       1  UNL1        0.0634
     39 H          -3.7020   34.2030  -24.7600 H       1  UNL1        0.2922
     40 H          -1.0650   32.1670  -21.7000 H       1  UNL1        0.2922
     41 H          -1.6400   36.5160  -29.5140 H       1  UNL1        0.1937
     42 H           3.9230   38.2140  -24.9840 H       1  UNL1        0.0647
     43 H           4.3000   30.7430  -23.5000 H       1  UNL1        0.0464
     44 H           4.7180   32.3970  -23.0460 H       1  UNL1        0.0464
     45 H           0.3270   39.0430  -22.8070 H       1  UNL1        0.0618
     46 H           1.3490   31.3470  -25.0960 H       1  UNL1        0.0429
     47 H           1.2100   30.8480  -23.4470 H       1  UNL1        0.0429
     48 H           2.4770   30.2130  -24.4380 H       1  UNL1        0.0429
     49 H           5.7670   30.0750  -25.5040 H       1  UNL1        0.0263
     50 H           6.6940   31.1370  -24.4380 H       1  UNL1        0.0263
@<TRIPOS>BOND
     1     1    30    1
     2     1    26   ar
     3     2    18    1
     4     3     2   ar
     5     3    31    1
     6     4     9    1
     7     4     2   ar
     8     5    13    1
     9     6    16   ar
    10     7     1   ar
    11     8    26   ar
    12     8    32    1
    13     9    24    2
    14    10    25    1
    15    11    37    1
    16    11    28    1
    17    12     3   ar
    18    13    14   ar
    19    13    12   ar
    20    14     4   ar
    21    15     5   ar
    22    16     5   ar
    23    16     7    1
    24    17    12    1
    25    17    39    1
    26    18    40    1
    27    19     6   ar
    28    19    15   ar
    29    20     6    2
    30    21     7   ar
    31    21    22   ar
    32    22     8   ar
    33    23    25    1
    34    23     9   am
    35    25    43    1
    36    25    44    1
    37    26    45    1
    38    27    23    1
    39    27    47    1
    40    28    10    1
    41    28    50    1
    42    29    21    1
    43    33    10    1
    44    34    10    1
    45    35    11    1
    46    36    11    1
    47    38    14    1
    48    41    19    1
    49    42    22    1
    50    46    27    1
    51    48    27    1
    52    49    28    1
