@<TRIPOS>MOLECULE
C8W
   49    51     1     0     0
SMALL
bcc


@<TRIPOS>ATOM
      1 C1          67.9910    38.5030    27.0670 c3       302 C8W       0.119400
      2 O2          68.9470    37.4240    27.0300 os       302 C8W      -0.333900
      3 S3          63.6060    35.8960    21.6340 ss       302 C8W      -0.041900
      4 C4          65.2540    36.4880    21.5350 cc       302 C8W      -0.365600
      5 C5          65.7530    37.2610    20.4340 c        302 C8W       0.710300
      6 N6          64.9600    37.5300    19.3790 n        302 C8W      -0.656000
      7 N7          62.3120    33.1600    25.7100 nh       302 C8W      -0.933500
      8 C8          63.3120    33.8250    25.0400 ca       302 C8W       0.689200
      9 C9          64.6390    33.9000    25.5520 ca       302 C8W      -0.226300
     10 N10         62.9990    34.3720    23.8860 nb       302 C8W      -0.734000
     11 C11         65.0040    33.2640    26.8000 cg       302 C8W       0.265800
     12 N12         65.3310    32.7680    27.7730 n1       302 C8W      -0.402800
     13 C13         63.8820    35.0790    23.1600 ca       302 C8W       0.496600
     14 C14         65.2100    35.2700    23.5900 ca       302 C8W      -0.265100
     15 C15         65.9680    36.0870    22.6340 cd       302 C8W       0.323800
     16 N16         67.3100    36.4370    22.7970 nh       302 C8W      -0.771600
     17 C17         68.6130    36.2220    26.4710 ca       302 C8W       0.118100
     18 C18         69.5570    35.1800    26.4350 ca       302 C8W       0.101100
     19 C19         69.1850    33.9460    25.8870 ca       302 C8W      -0.196000
     20 C20         67.9180    33.7440    25.3510 ca       302 C8W      -0.101000
     21 C21         66.9820    34.7920    25.3630 cp       302 C8W      -0.092000
     22 C22         67.3370    36.0160    25.9460 ca       302 C8W      -0.117000
     23 C23         65.6040    34.6410    24.8260 cp       302 C8W       0.174000
     24 O24         70.8120    35.3990    26.9590 os       302 C8W      -0.302900
     25 C25         71.8470    34.4060    26.9160 c3       302 C8W       0.112700
     26 O26         66.9140    37.6480    20.3940 o        302 C8W      -0.632100
     27 C27         68.3900    39.5670    28.0990 c3       302 C8W      -0.084400
     28 C28         69.5570    40.4340    27.6000 c3       302 C8W      -0.201400
     29 C29         69.1450    41.3760    26.4870 c        302 C8W       0.902600
     30 O30         68.5610    42.4080    26.7460 o        302 C8W      -0.852800
     31 O31         69.4330    41.0750    25.2050 o        302 C8W      -0.852800
     32 H01         67.0220    38.0940    27.3520 h1       302 C8W       0.067700
     33 H02         67.9380    38.9660    26.0810 h1       302 C8W       0.067700
     34 H03         64.0030    37.2060    19.3710 hn       302 C8W       0.287500
     35 H04         65.3220    38.0550    18.5960 hn       302 C8W       0.287500
     36 H05         62.5070    32.7160    26.5960 hn       302 C8W       0.410800
     37 H06         61.3830    33.1160    25.3160 hn       302 C8W       0.410800
     38 H07         67.8170    36.1270    23.6140 hn       302 C8W       0.455800
     39 H08         67.7740    37.0000    22.0980 hn       302 C8W       0.455800
     40 H09         69.9040    33.1270    25.8810 ha       302 C8W       0.129000
     41 H10         67.6520    32.7770    24.9240 ha       302 C8W       0.132000
     42 H11         66.6030    36.8210    25.9900 ha       302 C8W       0.201000
     43 H12         72.7270    34.7760    27.4420 h1       302 C8W       0.036367
     44 H13         71.4950    33.4930    27.3950 h1       302 C8W       0.036367
     45 H14         72.1070    34.1960    25.8780 h1       302 C8W       0.036367
     46 H15         68.7110    39.0560    29.0070 hc       302 C8W       0.039200
     47 H16         67.5310    40.2090    28.2960 hc       302 C8W       0.039200
     48 H17         70.3200    39.7650    27.2020 hc       302 C8W       0.029700
     49 H18         69.9380    41.0230    28.4340 hc       302 C8W       0.029700
@<TRIPOS>BOND
     1     1     2 1   
     2     1    27 1   
     3     1    32 1   
     4     1    33 1   
     5     2    17 1   
     6     3     4 1   
     7     3    13 1   
     8     4     5 1   
     9     4    15 2   
    10     5     6 1   
    11     5    26 2   
    12     6    34 1   
    13     6    35 1   
    14     7     8 1   
    15     7    36 1   
    16     7    37 1   
    17     8     9 ar  
    18     8    10 ar  
    19     9    11 1   
    20     9    23 ar  
    21    10    13 ar  
    22    11    12 3   
    23    13    14 ar  
    24    14    15 1   
    25    14    23 ar  
    26    15    16 1   
    27    16    38 1   
    28    16    39 1   
    29    17    18 ar  
    30    17    22 ar  
    31    18    19 ar  
    32    18    24 1   
    33    19    20 ar  
    34    19    40 1   
    35    20    21 ar  
    36    20    41 1   
    37    21    22 ar  
    38    21    23 1   
    39    22    42 1   
    40    24    25 1   
    41    25    43 1   
    42    25    44 1   
    43    25    45 1   
    44    27    28 1   
    45    27    46 1   
    46    27    47 1   
    47    28    29 1   
    48    28    48 1   
    49    28    49 1   
    50    29    30 1   
    51    29    31 1   
@<TRIPOS>SUBSTRUCTURE
     1 C8W         1 TEMP              0 ****  ****    0 ROOT
