@<TRIPOS>MOLECULE
C8W
   50    52     1     0     0
SMALL
bcc


@<TRIPOS>ATOM
      1 H10         61.3830    33.1160    25.3160 hn         0 C8W       0.442800
      2 H11         62.5070    32.7160    26.5960 hn         0 C8W       0.442800
      3 H15         71.4950    33.4930    27.3950 h1         0 C8W       0.047700
      4 H16         72.1070    34.1960    25.8780 h1         0 C8W       0.047700
      5 H17         70.3200    39.7650    27.2020 hc         0 C8W       0.093200
      6 H04         65.3220    38.0550    18.5960 hn         0 C8W       0.311000
      7 H18         69.9380    41.0230    28.4340 hc         0 C8W       0.093200
      8 H19         68.4310    42.9140    25.9400 ho         0 C8W       0.445000
      9 H05         69.9040    33.1270    25.8810 ha         0 C8W       0.148000
     10 H13         67.8170    36.1270    23.6140 hn         0 C8W       0.459300
     11 H03         64.0030    37.2060    19.3710 hn         0 C8W       0.311000
     12 H02         67.0120    38.1020    27.3300 h1         0 C8W       0.057200
     13 H14         72.7270    34.7760    27.4420 h1         0 C8W       0.047700
     14 H01         67.9640    38.9720    26.0830 h1         0 C8W       0.057200
     15 H08         68.7110    39.0560    29.0070 hc         0 C8W       0.067700
     16 H07         66.6030    36.8210    25.9900 ha         0 C8W       0.156000
     17 H06         67.6520    32.7770    24.9240 ha         0 C8W       0.149000
     18 H09         67.5310    40.2090    28.2960 hc         0 C8W       0.067700
     19 H12         67.7740    37.0000    22.0980 hn         0 C8W       0.459300
     20 C           67.9910    38.5030    27.0670 c3         0 C8W       0.115400
     21 N           64.9600    37.5300    19.3790 n          0 C8W      -0.678000
     22 C1          63.3120    33.8250    25.0400 ca         0 C8W       0.734200
     23 C2          64.6390    33.9000    25.5520 ca         0 C8W      -0.226300
     24 C3          65.0040    33.2640    26.8000 cg         0 C8W       0.246800
     25 C4          63.8820    35.0790    23.1600 ca         0 C8W       0.513600
     26 C5          65.2100    35.2700    23.5900 ca         0 C8W      -0.308100
     27 C6          65.9680    36.0870    22.6340 cc         0 C8W       0.322800
     28 C7          69.1850    33.9460    25.8870 ca         0 C8W      -0.186000
     29 C8          67.9180    33.7440    25.3510 ca         0 C8W      -0.100000
     30 C9          66.9820    34.7920    25.3630 cp         0 C8W      -0.093000
     31 C10         67.3370    36.0160    25.9460 ca         0 C8W      -0.158000
     32 C11         68.3900    39.5670    28.0990 c3         0 C8W      -0.074400
     33 O           68.9470    37.4240    27.0300 os         0 C8W      -0.316900
     34 S           63.6060    35.8960    21.6340 ss         0 C8W      -0.017900
     35 C12         65.2540    36.4880    21.5350 cd         0 C8W      -0.357600
     36 C13         65.7530    37.2610    20.4340 c          0 C8W       0.728300
     37 N1          62.3120    33.1600    25.7100 nh         0 C8W      -0.958500
     38 N2          62.9990    34.3720    23.8860 nb         0 C8W      -0.736000
     39 N3          65.3310    32.7680    27.7730 n1         0 C8W      -0.377800
     40 N4          67.3100    36.4370    22.7970 nh         0 C8W      -0.833600
     41 C14         68.6130    36.2220    26.4710 ca         0 C8W       0.105100
     42 C15         69.5570    35.1800    26.4350 ca         0 C8W       0.117100
     43 C16         65.6040    34.6410    24.8260 cp         0 C8W       0.154000
     44 O1          70.8120    35.3990    26.9590 os         0 C8W      -0.301900
     45 C17         71.8470    34.4060    26.9160 c3         0 C8W       0.108700
     46 O2          66.9140    37.6480    20.3940 o          0 C8W      -0.661100
     47 C18         69.5570    40.4340    27.6000 c3         0 C8W      -0.130400
     48 C19         69.1450    41.3760    26.4870 c          0 C8W       0.635100
     49 O3          68.5610    42.4080    26.7460 oh         0 C8W      -0.609100
     50 O4          69.4330    41.0750    25.2050 o          0 C8W      -0.560000
@<TRIPOS>BOND
     1     1    37 1   
     2     2    37 1   
     3     3    45 1   
     4     4    45 1   
     5     5    47 1   
     6     6    21 1   
     7     7    47 1   
     8     8    49 1   
     9     9    28 1   
    10    10    40 1   
    11    11    21 1   
    12    12    20 1   
    13    13    45 1   
    14    14    20 1   
    15    15    32 1   
    16    16    31 1   
    17    17    29 1   
    18    18    32 1   
    19    19    40 1   
    20    20    32 1   
    21    20    33 1   
    22    21    36 1   
    23    22    23 ar  
    24    22    37 1   
    25    22    38 ar  
    26    23    24 1   
    27    23    43 ar  
    28    24    39 3   
    29    25    26 ar  
    30    25    34 1   
    31    25    38 ar  
    32    26    27 1   
    33    26    43 ar  
    34    27    35 2   
    35    27    40 1   
    36    28    29 ar  
    37    28    42 ar  
    38    29    30 ar  
    39    30    31 ar  
    40    30    43 1   
    41    31    41 ar  
    42    32    47 1   
    43    33    41 1   
    44    34    35 1   
    45    35    36 1   
    46    36    46 2   
    47    41    42 ar  
    48    42    44 1   
    49    44    45 1   
    50    47    48 1   
    51    48    49 1   
    52    48    50 2   
@<TRIPOS>SUBSTRUCTURE
     1 C8W         1 TEMP              0 ****  ****    0 ROOT
