/web/media/ligands/5LRZ_ligand.pdb
 OpenBabel04242009293D

 36 42  0  0  1  0  0  0  0  0999 V2000
    7.7120   11.1040   24.3930 C   0  0  0  0  0  0  0  0  0  0  0  0
    6.4730   11.7370   24.5270 C   0  0  0  0  0  0  0  0  0  0  0  0
    5.3070   11.0810   24.1130 C   0  0  0  0  0  0  0  0  0  0  0  0
    4.1450   11.9530   24.3340 C   0  0  2  0  0  0  0  0  0  0  0  0
    6.0740   13.0480   25.0850 C   0  0  0  0  0  0  0  0  0  0  0  0
    4.6810   13.1500   24.9880 C   0  0  0  0  0  0  0  0  0  0  0  0
    4.0150   14.2770   25.4620 C   0  0  0  0  0  0  0  0  0  0  0  0
    4.7250   15.3060   26.0500 C   0  0  0  0  0  0  0  0  0  0  0  0
    6.1020   15.2270   26.1570 C   0  0  0  0  0  0  0  0  0  0  0  0
    6.7970   14.1200   25.6640 C   0  0  0  0  0  0  0  0  0  0  0  0
    8.2870   14.1600   25.7090 C   0  0  0  0  0  0  0  0  0  0  0  0
    5.3790    9.7910   23.5900 C   0  0  0  0  0  0  0  0  0  0  0  0
    7.7720    9.8160   23.8740 C   0  0  0  0  0  0  0  0  0  0  0  0
    6.6090    9.1590   23.4830 C   0  0  0  0  0  0  0  0  0  0  0  0
    3.0300   11.3360   25.0670 N   0  0  0  0  0  0  0  0  0  0  0  0
    0.7280    9.7560   26.4700 C   0  0  0  0  0  0  0  0  0  0  0  0
   -0.4630    9.6960   27.1780 C   0  0  0  0  0  0  0  0  0  0  0  0
   -1.5960   10.2630   26.7360 N   0  0  0  0  0  0  0  0  0  0  0  0
    0.7800   10.4600   25.2480 C   0  0  0  0  0  0  0  0  0  0  0  0
   -0.3760   11.0140   24.7550 C   0  0  0  0  0  0  0  0  0  0  0  0
   -1.5180   10.8560   25.5290 C   0  0  0  0  0  0  0  0  0  0  0  0
   -2.5480   11.3120   24.7630 N   0  0  0  0  0  0  0  0  0  0  0  0
   -2.0020   11.7410   23.6010 C   0  0  0  0  0  0  0  0  0  0  0  0
   -0.6930   11.6080   23.5450 N   0  0  0  0  0  0  0  0  0  0  0  0
    2.0530   10.6440   24.4600 C   0  0  0  0  0  0  0  0  0  0  0  0
    2.1220   10.3050   23.2800 O   0  0  0  0  0  0  0  0  0  0  0  0
    8.9830   14.2240   26.9080 C   0  0  0  0  0  0  0  0  0  0  0  0
   10.3540   14.0370   24.4800 N   0  0  0  0  0  0  0  0  0  0  0  0
    9.0370   14.0910   24.5340 C   0  0  0  0  0  0  0  0  0  0  0  0
   11.0520   14.0920   25.6650 C   0  0  0  0  0  0  0  0  0  0  0  0
   10.3950   14.2020   26.9170 C   0  0  0  0  0  0  0  0  0  0  0  0
   11.1830   14.3020   28.0940 C   0  0  0  0  0  0  0  0  0  0  0  0
   12.5520   14.3030   28.0200 C   0  0  0  0  0  0  0  0  0  0  0  0
   13.1970   14.1950   26.7870 C   0  0  0  0  0  0  0  0  0  0  0  0
   12.4710   14.0700   25.6290 C   0  0  0  0  0  0  0  0  0  0  0  0
    2.2300    8.8280   27.1710 Br  0  0  0  0  0  0  0  0  0  0  0  0
  1  2  1  0  0  0  0
  2  5  1  0  0  0  0
  3  4  1  0  0  0  0
  3  2  2  0  0  0  0
  4  6  1  0  0  0  0
  4 15  1  1  0  0  0
  5 10  1  0  0  0  0
  6  5  2  0  0  0  0
  6  7  1  0  0  0  0
  7  8  2  0  0  0  0
  8  9  1  0  0  0  0
 10 11  1  0  0  0  0
 10  9  2  0  0  0  0
 11 27  2  0  0  0  0
 12  3  1  0  0  0  0
 13  1  2  0  0  0  0
 14 12  2  0  0  0  0
 14 13  1  0  0  0  0
 16 36  1  0  0  0  0
 16 17  2  0  0  0  0
 18 17  1  0  0  0  0
 19 16  1  0  0  0  0
 20 19  2  0  0  0  0
 20 21  1  0  0  0  0
 21 18  2  0  0  0  0
 22 21  1  0  0  0  0
 23 22  1  0  0  0  0
 24 23  2  0  0  0  0
 24 20  1  0  0  0  0
 25 15  1  0  0  0  0
 25 19  1  0  0  0  0
 26 25  2  0  0  0  0
 27 31  1  0  0  0  0
 28 29  2  0  0  0  0
 28 30  1  0  0  0  0
 29 11  1  0  0  0  0
 30 31  1  0  0  0  0
 31 32  2  0  0  0  0
 33 32  1  0  0  0  0
 34 33  2  0  0  0  0
 35 30  2  0  0  0  0
 35 34  1  0  0  0  0
M  END
>  <REMARK>
 800 SITE_DESCRIPTION: binding site for residue 73Y A 4000                

>  <HET>
 73Y  A4000      36                                                       

>  <HETNAM>
     73Y 6-BROMANYL-~{N}-[(9~{R})-4-QUINOLIN-3-YL-9~{H}-FLUOREN-          
   2 73Y  9-YL]-3~{H}-IMIDAZO[4,5-B]PYRIDINE-7-CARBOXAMIDE                

>  <FORMUL>
   2  73Y    C29 H18 BR N5 O                                              

$$$$
