REMARK  Name = /web/media/ligands/5LRZ_ligand.pdb
REMARK  3 active torsions:
REMARK  status: ('A' for Active; 'I' for Inactive)
REMARK    1  A    between atoms: C_4  and  N_15
REMARK    2  A    between atoms: C_10  and  C_11
REMARK    3  A    between atoms: C_19  and  C_25
REMARK                            x       y       z     vdW  Elec       q    Type
REMARK                         _______ _______ _______ _____ _____    ______ ____
ROOT
ATOM      1  C   UNL     1       7.712  11.104  24.393  0.00  0.00    -0.000 A 
ATOM      2  C   UNL     1       7.772   9.816  23.874  0.00  0.00    -0.000 A 
ATOM      3  C   UNL     1       6.609   9.159  23.483  0.00  0.00    -0.000 A 
ATOM      4  C   UNL     1       5.379   9.791  23.590  0.00  0.00    -0.002 A 
ATOM      5  C   UNL     1       5.307  11.081  24.113  0.00  0.00    +0.002 A 
ATOM      6  C   UNL     1       4.145  11.953  24.334  0.00  0.00    +0.140 C 
ATOM      7  C   UNL     1       4.681  13.150  24.988  0.00  0.00    +0.002 A 
ATOM      8  C   UNL     1       4.015  14.277  25.462  0.00  0.00    -0.002 A 
ATOM      9  C   UNL     1       4.725  15.306  26.050  0.00  0.00    -0.000 A 
ATOM     10  C   UNL     1       6.102  15.227  26.157  0.00  0.00    +0.000 A 
ATOM     11  C   UNL     1       6.797  14.120  25.664  0.00  0.00    +0.001 A 
ATOM     12  C   UNL     1       6.074  13.048  25.085  0.00  0.00    -0.002 A 
ATOM     13  C   UNL     1       6.473  11.737  24.527  0.00  0.00    -0.002 A 
ENDROOT
BRANCH  11  14
ATOM     14  C   UNL     1       8.287  14.160  25.709  0.00  0.00    +0.019 A 
ATOM     15  C   UNL     1       9.037  14.091  24.534  0.00  0.00    +0.099 A 
ATOM     16  N   UNL     1      10.354  14.037  24.480  0.00  0.00    -0.244 NA
ATOM     17  C   UNL     1      11.052  14.092  25.665  0.00  0.00    +0.081 A 
ATOM     18  C   UNL     1      12.471  14.070  25.629  0.00  0.00    +0.019 A 
ATOM     19  C   UNL     1      13.197  14.195  26.787  0.00  0.00    +0.002 A 
ATOM     20  C   UNL     1      12.552  14.303  28.020  0.00  0.00    +0.000 A 
ATOM     21  C   UNL     1      11.183  14.302  28.094  0.00  0.00    +0.001 A 
ATOM     22  C   UNL     1      10.395  14.202  26.917  0.00  0.00    +0.018 A 
ATOM     23  C   UNL     1       8.983  14.224  26.908  0.00  0.00    +0.003 A 
ENDBRANCH  11  14
BRANCH   6  24
ATOM     24  N   UNL     1       3.030  11.336  25.067  0.00  0.00    -0.194 NA
ATOM     25  C   UNL     1       2.053  10.644  24.460  0.00  0.00    +0.267 C 
ATOM     26  O   UNL     1       2.122  10.305  23.280  0.00  0.00    -0.268 OA
BRANCH  25  27
ATOM     27  C   UNL     1       0.780  10.460  25.248  0.00  0.00    +0.083 A 
ATOM     28  C   UNL     1      -0.376  11.014  24.755  0.00  0.00    +0.124 A 
ATOM     29  N   UNL     1      -0.693  11.608  23.545  0.00  0.00    -0.221 NA
ATOM     30  C   UNL     1      -2.002  11.741  23.601  0.00  0.00    +0.200 A 
ATOM     31  N   UNL     1      -2.548  11.312  24.763  0.00  0.00    -0.203 NA
ATOM     32  C   UNL     1      -1.518  10.856  25.529  0.00  0.00    +0.182 A 
ATOM     33  N   UNL     1      -1.596  10.263  26.736  0.00  0.00    -0.223 NA
ATOM     34  C   UNL     1      -0.463   9.696  27.178  0.00  0.00    +0.107 A 
ATOM     35  C   UNL     1       0.728   9.756  26.470  0.00  0.00    +0.060 A 
ATOM     36 BR   UNL     1       2.230   8.828  27.171  0.00  0.00    -0.047 Br
ENDBRANCH  25  27
ENDBRANCH   6  24
TORSDOF 3
