@<TRIPOS>MOLECULE
2GG
   44    46     1     0     0
SMALL
bcc


@<TRIPOS>ATOM
      1 CL25        33.5480    12.4520    22.7020 cl      1228 2GG      -0.060400
      2 N1          30.0930     8.8920    28.0040 nc      1228 2GG      -0.330300
      3 C2          31.0410     8.0900    27.5120 cd      1228 2GG       0.282800
      4 C3          31.4680     8.5170    26.2370 cd      1228 2GG      -0.209600
      5 O3          29.8850     9.8740    27.0470 os      1228 2GG      -0.138100
      6 C4          30.7040     9.6700    25.9840 cc      1228 2GG       0.334200
      7 C6          30.7220    10.4920    24.8390 ca      1228 2GG      -0.257500
      8 C7          32.4480     7.9140    25.3780 ca      1228 2GG      -0.076000
      9 C8          31.5650     6.9080    28.2960 c       1228 2GG       0.599600
     10 O9          32.0520     5.9280    27.7380 o       1228 2GG      -0.584100
     11 N10         31.5370     7.0580    29.6330 n       1228 2GG      -0.555900
     12 C11         31.9450    11.0010    24.3910 ca      1228 2GG      -0.028000
     13 C12         32.0160    11.8130    23.2580 ca      1228 2GG      -0.054600
     14 C13         30.8300    12.1310    22.5810 ca      1228 2GG       0.191100
     15 C14         29.5990    11.6240    23.0020 ca      1228 2GG      -0.259000
     16 C15         29.5450    10.8400    24.1630 ca      1228 2GG       0.217100
     17 C16         33.8030     7.9190    25.7240 ca      1228 2GG      -0.067000
     18 C17         34.7730     7.3510    24.8900 ca      1228 2GG      -0.183500
     19 C18         34.4180     6.7760    23.6490 ca      1228 2GG       0.139100
     20 C19         33.0590     6.7530    23.2680 ca      1228 2GG      -0.183500
     21 C20         32.0940     7.3320    24.1290 ca      1228 2GG      -0.067000
     22 O21         35.4350     6.2380    22.9030 os      1228 2GG      -0.324900
     23 C22         35.1100     5.6100    21.6240 c3      1228 2GG       0.111700
     24 O23         28.3380    10.3530    24.5620 oh      1228 2GG      -0.487100
     25 O24         30.8780    12.8740    21.4710 oh      1228 2GG      -0.474100
     26 C26         32.0110     5.9860    30.5390 c3      1228 2GG       0.086000
     27 C27         33.4920     6.2160    30.8900 c3      1228 2GG      -0.119100
     28 H01         31.1860     7.9190    30.0270 hn      1228 2GG       0.319500
     29 H02         32.8580    10.7600    24.9360 ha      1228 2GG       0.163000
     30 H03         28.6920    11.8350    22.4350 ha      1228 2GG       0.162000
     31 H04         34.1110     8.3760    26.6650 ha      1228 2GG       0.144000
     32 H05         35.8170     7.3520    25.2020 ha      1228 2GG       0.148000
     33 H06         32.7560     6.2970    22.3260 ha      1228 2GG       0.148000
     34 H07         31.0470     7.3310    23.8250 ha      1228 2GG       0.144000
     35 H08         34.2780     6.1400    21.1610 h1      1228 2GG       0.047033
     36 H09         35.9780     5.6530    20.9660 h1      1228 2GG       0.047033
     37 H10         34.8300     4.5700    21.7900 h1      1228 2GG       0.047033
     38 H11         28.0840    10.7660    25.3900 ho      1228 2GG       0.445000
     39 H12         30.1970    13.5500    21.5080 ho      1228 2GG       0.430000
     40 H13         31.9050     5.0220    30.0410 h1      1228 2GG       0.062700
     41 H14         31.4160     5.9940    31.4530 h1      1228 2GG       0.062700
     42 H15         34.0560     6.4080    29.9770 hc      1228 2GG       0.043367
     43 H16         33.5790     7.0740    31.5570 hc      1228 2GG       0.043367
     44 H17         33.8910     5.3300    31.3830 hc      1228 2GG       0.043367
@<TRIPOS>BOND
     1     1    13 1   
     2     2     3 2   
     3     2     5 1   
     4     3     4 1   
     5     3     9 1   
     6     4     6 2   
     7     4     8 1   
     8     5     6 1   
     9     6     7 1   
    10     7    12 ar  
    11     7    16 ar  
    12     8    17 ar  
    13     8    21 ar  
    14     9    10 2   
    15     9    11 1   
    16    11    26 1   
    17    11    28 1   
    18    12    13 ar  
    19    12    29 1   
    20    13    14 ar  
    21    14    15 ar  
    22    14    25 1   
    23    15    16 ar  
    24    15    30 1   
    25    16    24 1   
    26    17    18 ar  
    27    17    31 1   
    28    18    19 ar  
    29    18    32 1   
    30    19    20 ar  
    31    19    22 1   
    32    20    21 ar  
    33    20    33 1   
    34    21    34 1   
    35    22    23 1   
    36    23    35 1   
    37    23    36 1   
    38    23    37 1   
    39    24    38 1   
    40    25    39 1   
    41    26    27 1   
    42    26    40 1   
    43    26    41 1   
    44    27    42 1   
    45    27    43 1   
    46    27    44 1   
@<TRIPOS>SUBSTRUCTURE
     1 2GG         1 TEMP              0 ****  ****    0 ROOT
