@<TRIPOS>MOLECULE
/web/media/ligands/1QSG_ligand.pdb
 17 18 0 0 0
SMALL
GASTEIGER

@<TRIPOS>ATOM
      1 C           9.5330   14.4730   10.2190 C.ar    1  UNL1        0.0566
      2 C           8.9140   15.6900   10.4960 C.ar    1  UNL1        0.0611
      3 C          10.7180   14.1640   10.9030 C.ar    1  UNL1        0.2307
      4 C          11.2180   14.9930   11.8840 C.ar    1  UNL1        0.1840
      5 C          10.5420   16.1580   12.1660 C.ar    1  UNL1        0.0417
      6 C           9.4120   16.5760   11.4380 C.ar    1  UNL1        0.0147
      7 C          16.1130   15.4470   10.7060 C.ar    1  UNL1        0.0587
      8 C          16.0760   14.7600   11.9310 C.ar    1  UNL1        0.0259
      9 C          14.8280   14.4830   12.4920 C.ar    1  UNL1        0.0929
     10 C          13.6610   14.8700   11.9010 C.ar    1  UNL1        0.1559
     11 C          14.9760   15.8650   10.0720 C.ar    1  UNL1        0.0146
     12 C          13.7490   15.5650   10.7100 C.ar    1  UNL1        0.0392
     13 O          12.4010   14.6390   12.4900 O.3     1  UNL1       -0.4494
     14 CL          7.4600   16.1030    9.6190 Cl      1  UNL1       -0.0821
     15 CL         17.6770   15.8050   10.0020 Cl      1  UNL1       -0.0822
     16 CL         14.7870   13.6890   14.0440 Cl      1  UNL1       -0.0790
     17 O          11.3750   12.9590   10.6220 O.3     1  UNL1       -0.2833
@<TRIPOS>BOND
     1     1     2   ar
     2     1     3   ar
     3     2     6   ar
     4     3     4   ar
     5     4     5   ar
     6     4    13    1
     7     6     5   ar
     8     7     8   ar
     9     8     9   ar
    10     9    16    1
    11    10    13    1
    12    10     9   ar
    13    11     7   ar
    14    11    12   ar
    15    12    10   ar
    16    14     2    1
    17    15     7    1
    18    17     3    1
