/web/media/ligands/1QSG_ligand.pdb
 OpenBabel04242009293D

 17 18  0  0  0  0  0  0  0  0999 V2000
    9.5330   14.4730   10.2190 C   0  0  0  0  0  0  0  0  0  0  0  0
    8.9140   15.6900   10.4960 C   0  0  0  0  0  0  0  0  0  0  0  0
   10.7180   14.1640   10.9030 C   0  0  0  0  0  0  0  0  0  0  0  0
   11.2180   14.9930   11.8840 C   0  0  0  0  0  0  0  0  0  0  0  0
   10.5420   16.1580   12.1660 C   0  0  0  0  0  0  0  0  0  0  0  0
    9.4120   16.5760   11.4380 C   0  0  0  0  0  0  0  0  0  0  0  0
   16.1130   15.4470   10.7060 C   0  0  0  0  0  0  0  0  0  0  0  0
   16.0760   14.7600   11.9310 C   0  0  0  0  0  0  0  0  0  0  0  0
   14.8280   14.4830   12.4920 C   0  0  0  0  0  0  0  0  0  0  0  0
   13.6610   14.8700   11.9010 C   0  0  0  0  0  0  0  0  0  0  0  0
   14.9760   15.8650   10.0720 C   0  0  0  0  0  0  0  0  0  0  0  0
   13.7490   15.5650   10.7100 C   0  0  0  0  0  0  0  0  0  0  0  0
   12.4010   14.6390   12.4900 O   0  0  0  0  0  0  0  0  0  0  0  0
    7.4600   16.1030    9.6190 Cl  0  0  0  0  0  0  0  0  0  0  0  0
   17.6770   15.8050   10.0020 Cl  0  0  0  0  0  0  0  0  0  0  0  0
   14.7870   13.6890   14.0440 Cl  0  0  0  0  0  0  0  0  0  0  0  0
   11.3750   12.9590   10.6220 O   0  0  0  0  0  0  0  0  0  0  0  0
  1  2  2  0  0  0  0
  1  3  1  0  0  0  0
  2  6  1  0  0  0  0
  3  4  2  0  0  0  0
  4  5  1  0  0  0  0
  4 13  1  0  0  0  0
  6  5  2  0  0  0  0
  7  8  1  0  0  0  0
  8  9  2  0  0  0  0
  9 16  1  0  0  0  0
 10 13  1  0  0  0  0
 10  9  1  0  0  0  0
 11  7  2  0  0  0  0
 11 12  1  0  0  0  0
 12 10  2  0  0  0  0
 14  2  1  0  0  0  0
 15  7  1  0  0  0  0
 17  3  1  0  0  0  0
M  END
>  <REMARK>
 800 SITE_DESCRIPTION: BINDING SITE FOR RESIDUE TCL A 1302                
 800 SITE_DESCRIPTION: BINDING SITE FOR RESIDUE TCL B 1305                
 800 SITE_DESCRIPTION: BINDING SITE FOR RESIDUE TCL C 1308                
 800 SITE_DESCRIPTION: BINDING SITE FOR RESIDUE TCL D 1311                
 800 SITE_DESCRIPTION: BINDING SITE FOR RESIDUE TCL E 1314                
 800 SITE_DESCRIPTION: BINDING SITE FOR RESIDUE TCL F 1317                
 800 SITE_DESCRIPTION: BINDING SITE FOR RESIDUE TCL G 1320                
 800 SITE_DESCRIPTION: BINDING SITE FOR RESIDUE TCL H 1323                

>  <HET>
 TCL  A1302      17                                                       
 TCL  B1305      17                                                       
 TCL  C1308      17                                                       
 TCL  D1311      17                                                       
 TCL  E1314      17                                                       
 TCL  F1317      17                                                       
 TCL  G1320      17                                                       
 TCL  H1323      17                                                       

>  <HETNAM>
     TCL TRICLOSAN                                                        

>  <FORMUL>
  18  TCL    8(C12 H7 CL3 O2)                                             

>  <SITE>
   6 AC9 28 TCL A1302  GLC A1303  HOH A1308  HOH A1309                    
   6 BC2 28 TCL B1305  GLC B1306  HOH B1328  HOH B1331                    
   5 BC4 26 THR C 194  ALA C 196  TCL C1308  GLC C1309                    
   6 BC6 27 TCL D1311  GLC D1312  HOH D1315  HOH D1322                    
   6 BC8 30 LEU E 195  ALA E 196  TCL E1314  GLC E1315                    
   5 CC1 27 ILE F 192  THR F 194  ALA F 196  TCL F1317                    
   6 CC3 28 TCL G1320  GLC G1321  HOH G1330  HOH G1343                    
   6 CC5 28 TCL H1323  GLC H1324  HOH H1339  HOH H1348                    

$$$$
