REMARK  Name = /web/media/ligands/1XKK_ligand.pdb
REMARK  10 active torsions:
REMARK  status: ('A' for Active; 'I' for Inactive)
REMARK    1  A    between atoms: S_2  and  C_5
REMARK    2  A    between atoms: C_5  and  C_6
REMARK    3  A    between atoms: C_6  and  N_7
REMARK    4  A    between atoms: N_7  and  C_8
REMARK    5  A    between atoms: C_8  and  C_9
REMARK    6  A    between atoms: C_12  and  C_14
REMARK    7  A    between atoms: N_22  and  C_23
REMARK    8  A    between atoms: C_26  and  O_27
REMARK    9  A    between atoms: O_27  and  C_28
REMARK   10  A    between atoms: C_28  and  C_29
REMARK                            x       y       z     vdW  Elec       q    Type
REMARK                         _______ _______ _______ _____ _____    ______ ____
ROOT
ATOM      1  C   UNL     1      16.176  32.058  35.407  0.00  0.00    +0.035 A 
ATOM      2  C   UNL     1      14.958  31.986  34.735  0.00  0.00    +0.005 A 
ATOM      3  C   UNL     1      13.807  32.402  35.359  0.00  0.00    +0.019 A 
ATOM      4  C   UNL     1      13.849  32.890  36.664  0.00  0.00    +0.086 A 
ATOM      5  C   UNL     1      15.053  32.959  37.349  0.00  0.00    +0.051 A 
ATOM      6  C   UNL     1      15.077  33.452  38.668  0.00  0.00    +0.155 A 
ATOM      7  N   UNL     1      16.282  33.527  39.366  0.00  0.00    -0.194 NA
ATOM      8  N   UNL     1      13.899  33.863  39.260  0.00  0.00    -0.207 NA
ATOM      9  C   UNL     1      12.708  33.790  38.568  0.00  0.00    +0.200 A 
ATOM     10  N   UNL     1      12.683  33.305  37.276  0.00  0.00    -0.224 NA
ATOM     11  C   UNL     1      16.220  32.545  36.731  0.00  0.00    +0.007 A 
ENDROOT
BRANCH   7  12
ATOM     12  C   UNL     1      16.332  33.843  40.735  0.00  0.00    +0.073 A 
ATOM     13  C   UNL     1      15.607  33.098  41.660  0.00  0.00    +0.031 A 
ATOM     14  C   UNL     1      15.665  33.415  42.999  0.00  0.00    +0.093 A 
ATOM     15 CL   UNL     1      14.784  32.514  44.128  0.00  0.00    -0.079 Cl
ATOM     16  C   UNL     1      16.428  34.457  43.438  0.00  0.00    +0.150 A 
ATOM     17  C   UNL     1      17.164  35.215  42.535  0.00  0.00    +0.039 A 
ATOM     18  C   UNL     1      17.118  34.909  41.178  0.00  0.00    +0.020 A 
BRANCH  16  19
ATOM     19  O   UNL     1      16.446  34.747  44.828  0.00  0.00    -0.470 OA
BRANCH  19  20
ATOM     20  C   UNL     1      17.065  36.002  45.143  0.00  0.00    +0.232 C 
BRANCH  20  21
ATOM     21  C   UNL     1      16.085  37.181  44.984  0.00  0.00    +0.023 A 
ATOM     22  C   UNL     1      14.772  36.966  44.573  0.00  0.00    +0.029 A 
ATOM     23  C   UNL     1      13.916  38.036  44.429  0.00  0.00    +0.140 A 
ATOM     24  F   UNL     1      12.679  37.837  44.035  0.00  0.00    -0.204 F 
ATOM     25  C   UNL     1      14.354  39.312  44.693  0.00  0.00    +0.030 A 
ATOM     26  C   UNL     1      15.653  39.527  45.102  0.00  0.00    +0.002 A 
ATOM     27  C   UNL     1      16.519  38.462  45.246  0.00  0.00    -0.001 A 
ENDBRANCH  20  21
ENDBRANCH  19  20
ENDBRANCH  16  19
ENDBRANCH   7  12
BRANCH   1  31
ATOM     28  C   UNL     1      19.416  31.208  34.223  0.00  0.00    +0.140 A 
ATOM     29  C   UNL     1      18.674  30.977  33.121  0.00  0.00    +0.038 A 
ATOM     30  C   UNL     1      17.445  31.237  33.421  0.00  0.00    +0.040 A 
ATOM     31  C   UNL     1      17.409  31.645  34.731  0.00  0.00    +0.145 A 
ATOM     32  O   UNL     1      18.655  31.653  35.363  0.00  0.00    -0.456 OA
BRANCH  28  33
ATOM     33  C   UNL     1      20.914  31.019  34.265  0.00  0.00    +0.153 C 
BRANCH  33  34
ATOM     34  N   UNL     1      21.569  32.184  33.665  0.00  0.00    -0.208 NA
BRANCH  34  35
ATOM     35  C   UNL     1      22.061  31.836  32.324  0.00  0.00    +0.114 C 
BRANCH  35  36
ATOM     36  C   UNL     1      23.587  31.980  32.291  0.00  0.00    +0.170 C 
BRANCH  36  38
ATOM     37  C   UNL     1      22.604  34.487  31.141  0.00  0.00    +0.176 C 
ATOM     38  S   UNL     1      24.036  33.465  31.350  0.00  0.00    -0.007 S 
ATOM     39  O   UNL     1      24.543  33.077  30.053  0.00  0.00    -0.173 OA
ATOM     40  O   UNL     1      25.053  34.204  32.067  0.00  0.00    -0.173 OA
ENDBRANCH  36  38
ENDBRANCH  35  36
ENDBRANCH  34  35
ENDBRANCH  33  34
ENDBRANCH  28  33
ENDBRANCH   1  31
TORSDOF 10
