/web/media/ligands/1YET_ligand.pdb
 OpenBabel04242009293D

 40 41  0  0  1  0  0  0  0  0999 V2000
   38.4350  -50.9890   68.1470 O   0  0  0  0  0  0  0  0  0  0  0  0
   37.5890  -47.3870   62.6380 O   0  0  0  0  0  0  0  0  0  0  0  0
   37.9680  -44.7170   63.2480 O   0  0  0  0  0  0  0  0  0  0  0  0
   38.9370  -43.2560   61.7630 O   0  0  0  0  0  0  0  0  0  0  0  0
   44.9430  -43.4780   64.4210 O   0  0  0  0  0  0  0  0  0  0  0  0
   45.4050  -46.2650   63.7580 O   0  0  0  0  0  0  0  0  0  0  0  0
   43.2450  -44.8190   68.5200 O   0  0  0  0  0  0  0  0  0  0  0  0
   40.6420  -44.5160   69.2530 O   0  0  0  0  0  0  0  0  0  0  0  0
   42.1120  -49.4480   68.1200 O   0  0  0  0  0  0  0  0  0  0  0  0
   39.5890  -49.1610   68.8170 N   0  0  0  0  0  0  0  0  0  0  0  0
   36.7290  -43.1860   62.2470 N   0  0  0  0  0  0  0  0  0  0  0  0
   39.2170  -50.1180   67.8480 C   0  0  0  0  0  0  0  0  0  0  0  0
   39.8780  -50.0730   66.5040 C   0  0  0  0  0  0  0  0  0  0  0  0
   39.7130  -48.9800   65.7140 C   0  0  0  0  0  0  0  0  0  0  0  0
   40.2930  -48.7990   64.3870 C   0  0  0  0  0  0  0  0  0  0  0  0
   39.8560  -47.9390   63.4440 C   0  0  0  0  0  0  0  0  0  0  0  0
   38.7090  -46.9950   63.5290 C   0  0  1  0  0  0  0  0  0  0  0  0
   39.1110  -45.5010   63.1470 C   0  0  2  0  0  0  0  0  0  0  0  0
   40.2740  -44.8800   64.1120 C   0  0  0  0  0  0  0  0  0  0  0  0
   41.4060  -44.4320   63.5920 C   0  0  0  0  0  0  0  0  0  0  0  0
   42.5670  -43.7870   64.2880 C   0  0  1  0  0  0  0  0  0  0  0  0
   43.9320  -44.3370   63.8430 C   0  0  2  0  0  0  0  0  0  0  0  0
   44.1430  -45.7890   64.2740 C   0  0  2  0  0  0  0  0  0  0  0  0
   44.1980  -45.9760   65.7870 C   0  0  0  0  0  0  0  0  0  0  0  0
   44.3630  -47.4320   66.2830 C   0  0  1  0  0  0  0  0  0  0  0  0
   44.1620  -47.5820   67.8310 C   0  0  0  0  0  0  0  0  0  0  0  0
   42.7820  -47.1900   68.2720 C   0  0  0  0  0  0  0  0  0  0  0  0
   42.3590  -45.9580   68.5760 C   0  0  0  0  0  0  0  0  0  0  0  0
   40.9730  -45.6670   68.9870 C   0  0  0  0  0  0  0  0  0  0  0  0
   40.0010  -46.7620   69.0660 C   0  0  0  0  0  0  0  0  0  0  0  0
   40.3710  -48.0090   68.7820 C   0  0  0  0  0  0  0  0  0  0  0  0
   41.7830  -48.2910   68.3730 C   0  0  0  0  0  0  0  0  0  0  0  0
   40.6640  -51.2890   66.1240 C   0  0  0  0  0  0  0  0  0  0  0  0
   37.8540  -48.5360   61.7580 C   0  0  0  0  0  0  0  0  0  0  0  0
   37.9700  -43.6720   62.3560 C   0  0  0  0  0  0  0  0  0  0  0  0
   39.9400  -44.8150   65.6040 C   0  0  0  0  0  0  0  0  0  0  0  0
   42.4790  -42.2760   63.9780 C   0  0  0  0  0  0  0  0  0  0  0  0
   45.4000  -46.4540   62.3080 C   0  0  0  0  0  0  0  0  0  0  0  0
   43.4520  -48.3420   65.5110 C   0  0  0  0  0  0  0  0  0  0  0  0
   44.6220  -44.8250   68.9240 C   0  0  0  0  0  0  0  0  0  0  0  0
  4 35  2  0  0  0  0
  7 28  1  0  0  0  0
  7 40  1  0  0  0  0
  9 32  2  0  0  0  0
 11 35  1  0  0  0  0
 12  1  2  0  0  0  0
 12 10  1  0  0  0  0
 13 12  1  0  0  0  0
 14 13  2  0  0  0  0
 15 14  1  0  0  0  0
 16 17  1  0  0  0  0
 16 15  2  0  0  0  0
 17  2  1  6  0  0  0
 18  3  1  1  0  0  0
 18 17  1  0  0  0  0
 18 19  1  0  0  0  0
 19 36  1  0  0  0  0
 20 19  2  0  0  0  0
 20 21  1  0  0  0  0
 21 37  1  6  0  0  0
 22 23  1  0  0  0  0
 22 21  1  0  0  0  0
 22  5  1  1  0  0  0
 23  6  1  6  0  0  0
 23 24  1  0  0  0  0
 24 25  1  0  0  0  0
 25 39  1  6  0  0  0
 25 26  1  0  0  0  0
 26 27  1  0  0  0  0
 27 32  1  0  0  0  0
 27 28  2  0  0  0  0
 28 29  1  0  0  0  0
 29 30  1  0  0  0  0
 29  8  2  0  0  0  0
 31 10  1  0  0  0  0
 31 30  2  0  0  0  0
 32 31  1  0  0  0  0
 33 13  1  0  0  0  0
 34  2  1  0  0  0  0
 35  3  1  0  0  0  0
 38  6  1  0  0  0  0
M  END
>  <REMARK>
 800 SITE_DESCRIPTION: BINDING SITE FOR RESIDUE GDM A 275                 

>  <HET>
 GDM  A 275      40                                                       

>  <HETNAM>
     GDM GELDANAMYCIN                                                     

>  <FORMUL>
   2  GDM    C29 H40 N2 O9                                                

$$$$
