REMARK  Name = /web/media/ligands/1YET_ligand.pdb
REMARK  5 active torsions:
REMARK  status: ('A' for Active; 'I' for Inactive)
REMARK    1  A    between atoms: O_2  and  C_17
REMARK    2  A    between atoms: O_3  and  C_18
REMARK    3  A    between atoms: O_3  and  C_35
REMARK    4  A    between atoms: O_6  and  C_23
REMARK    5  A    between atoms: O_7  and  C_28
REMARK                            x       y       z     vdW  Elec       q    Type
REMARK                         _______ _______ _______ _____ _____    ______ ____
ROOT
ATOM      1  O   UNL     1      38.435 -50.989  68.147  0.00  0.00    -0.268 OA
ATOM      2  C   UNL     1      39.217 -50.118  67.848  0.00  0.00    +0.265 C 
ATOM      3  C   UNL     1      39.878 -50.073  66.504  0.00  0.00    +0.033 C 
ATOM      4  C   UNL     1      40.664 -51.289  66.124  0.00  0.00    +0.036 C 
ATOM      5  C   UNL     1      39.713 -48.980  65.714  0.00  0.00    +0.000 C 
ATOM      6  C   UNL     1      40.293 -48.799  64.387  0.00  0.00    -0.002 C 
ATOM      7  C   UNL     1      39.856 -47.939  63.444  0.00  0.00    +0.007 C 
ATOM      8  C   UNL     1      38.709 -46.995  63.529  0.00  0.00    +0.181 C 
ATOM      9  C   UNL     1      39.111 -45.501  63.147  0.00  0.00    +0.220 C 
ATOM     10  C   UNL     1      40.274 -44.880  64.112  0.00  0.00    -0.006 C 
ATOM     11  C   UNL     1      41.406 -44.432  63.592  0.00  0.00    -0.029 C 
ATOM     12  C   UNL     1      42.567 -43.787  64.288  0.00  0.00    +0.054 C 
ATOM     13  C   UNL     1      43.932 -44.337  63.843  0.00  0.00    +0.183 C 
ATOM     14  O   UNL     1      44.943 -43.478  64.421  0.00  0.00    -0.220 OA
ATOM     15  C   UNL     1      44.143 -45.789  64.274  0.00  0.00    +0.146 C 
ATOM     16  C   UNL     1      44.198 -45.976  65.787  0.00  0.00    +0.033 C 
ATOM     17  C   UNL     1      44.363 -47.432  66.283  0.00  0.00    +0.007 C 
ATOM     18  C   UNL     1      44.162 -47.582  67.831  0.00  0.00    +0.033 C 
ATOM     19  C   UNL     1      42.782 -47.190  68.272  0.00  0.00    +0.055 C 
ATOM     20  C   UNL     1      42.359 -45.958  68.576  0.00  0.00    +0.176 C 
ATOM     21  C   UNL     1      40.973 -45.667  68.987  0.00  0.00    +0.230 C 
ATOM     22  O   UNL     1      40.642 -44.516  69.253  0.00  0.00    -0.283 OA
ATOM     23  C   UNL     1      40.001 -46.762  69.066  0.00  0.00    +0.065 C 
ATOM     24  C   UNL     1      40.371 -48.009  68.782  0.00  0.00    +0.116 C 
ATOM     25  C   UNL     1      41.783 -48.291  68.373  0.00  0.00    +0.210 C 
ATOM     26  O   UNL     1      42.112 -49.448  68.120  0.00  0.00    -0.285 OA
ATOM     27  C   UNL     1      43.452 -48.342  65.511  0.00  0.00    +0.000 C 
ATOM     28  C   UNL     1      42.479 -42.276  63.978  0.00  0.00    +0.007 C 
ATOM     29  C   UNL     1      39.940 -44.815  65.604  0.00  0.00    +0.030 C 
ATOM     30  N   UNL     1      39.589 -49.161  68.817  0.00  0.00    -0.172 NA
ENDROOT
BRANCH  20  31
ATOM     31  O   UNL     1      43.245 -44.819  68.520  0.00  0.00    -0.468 OA
ATOM     32  C   UNL     1      44.622 -44.825  68.924  0.00  0.00    +0.253 C 
ENDBRANCH  20  31
BRANCH  15  33
ATOM     33  O   UNL     1      45.405 -46.265  63.758  0.00  0.00    -0.351 OA
ATOM     34  C   UNL     1      45.400 -46.454  62.308  0.00  0.00    +0.174 C 
ENDBRANCH  15  33
BRANCH   8  35
ATOM     35  O   UNL     1      37.589 -47.387  62.638  0.00  0.00    -0.345 OA
ATOM     36  C   UNL     1      37.854 -48.536  61.758  0.00  0.00    +0.175 C 
ENDBRANCH   8  35
BRANCH   9  37
ATOM     37  O   UNL     1      37.968 -44.717  63.248  0.00  0.00    -0.429 OA
BRANCH  37  38
ATOM     38  C   UNL     1      37.970 -43.672  62.356  0.00  0.00    +0.441 C 
ATOM     39  N   UNL     1      36.729 -43.186  62.247  0.00  0.00    -0.048 NA
ATOM     40  O   UNL     1      38.937 -43.256  61.763  0.00  0.00    -0.223 OA
ENDBRANCH  37  38
ENDBRANCH   9  37
TORSDOF 5
