/web/media/ligands/2BSM_ligand.pdb
 OpenBabel04242009293D

 27 29  0  0  0  0  0  0  0  0999 V2000
   35.0300    5.5210   21.5590 C   0  0  0  0  0  0  0  0  0  0  0  0
   35.4700    6.0780   22.7990 O   0  0  0  0  0  0  0  0  0  0  0  0
   34.4740    6.6820   23.5620 C   0  0  0  0  0  0  0  0  0  0  0  0
   33.1400    6.8550   23.1240 C   0  0  0  0  0  0  0  0  0  0  0  0
   32.1930    7.4710   23.9890 C   0  0  0  0  0  0  0  0  0  0  0  0
   34.8200    7.1250   24.8320 C   0  0  0  0  0  0  0  0  0  0  0  0
   33.8950    7.7530   25.6730 C   0  0  0  0  0  0  0  0  0  0  0  0
   32.5790    7.9360   25.2640 C   0  0  0  0  0  0  0  0  0  0  0  0
   31.6570    8.5710   26.1310 C   0  0  0  0  0  0  0  0  0  0  0  0
   31.3230    8.1960   27.4090 C   0  0  0  0  0  0  0  0  0  0  0  0
   31.8440    7.0080   28.2280 C   0  0  0  0  0  0  0  0  0  0  0  0
   32.3840    6.0480   27.7010 O   0  0  0  0  0  0  0  0  0  0  0  0
   31.6730    7.1410   29.5480 N   0  0  0  0  0  0  0  0  0  0  0  0
   32.0460    6.1200   30.5660 C   0  0  0  0  0  0  0  0  0  0  0  0
   33.4590    5.5720   30.3570 C   0  0  0  0  0  0  0  0  0  0  0  0
   30.4190    9.0730   27.8520 N   0  0  0  0  0  0  0  0  0  0  0  0
   30.1470    9.9480   26.9810 N   0  0  0  0  0  0  0  0  0  0  0  0
   30.8870    9.7460   25.8920 C   0  0  0  0  0  0  0  0  0  0  0  0
   30.8960   10.5090   24.7240 C   0  0  0  0  0  0  0  0  0  0  0  0
   32.0850   11.0070   24.2240 C   0  0  0  0  0  0  0  0  0  0  0  0
   32.0980   11.7910   23.0590 C   0  0  0  0  0  0  0  0  0  0  0  0
   33.5840   12.4180   22.4400 Cl  0  0  0  0  0  0  0  0  0  0  0  0
   30.9090   12.0920   22.4120 C   0  0  0  0  0  0  0  0  0  0  0  0
   30.9180   12.8280   21.2740 O   0  0  0  0  0  0  0  0  0  0  0  0
   29.7020   11.5950   22.9230 C   0  0  0  0  0  0  0  0  0  0  0  0
   29.7050   10.8360   24.0920 C   0  0  0  0  0  0  0  0  0  0  0  0
   28.5470   10.3880   24.5870 O   0  0  0  0  0  0  0  0  0  0  0  0
  1  2  1  0  0  0  0
  2  3  1  0  0  0  0
  3  6  1  0  0  0  0
  4  3  2  0  0  0  0
  4  5  1  0  0  0  0
  5  8  2  0  0  0  0
  6  7  2  0  0  0  0
  8  7  1  0  0  0  0
  8  9  1  0  0  0  0
  9 10  2  0  0  0  0
 10 16  1  0  0  0  0
 10 11  1  0  0  0  0
 11 13  1  0  0  0  0
 12 11  2  0  0  0  0
 13 14  1  0  0  0  0
 15 14  1  0  0  0  0
 17 16  1  0  0  0  0
 18  9  1  0  0  0  0
 18 17  2  0  0  0  0
 19 18  1  0  0  0  0
 20 19  1  0  0  0  0
 21 20  2  0  0  0  0
 22 21  1  0  0  0  0
 23 25  2  0  0  0  0
 23 21  1  0  0  0  0
 24 23  1  0  0  0  0
 25 26  1  0  0  0  0
 26 27  1  0  0  0  0
 26 19  2  0  0  0  0
M  END
>  <HEADER>
    CHAPERONE                               23-MAY-05   2BSM              

>  <REVDAT>
   4   28-FEB-18 2BSM    1       JRNL                                     
   3   24-FEB-09 2BSM    1       VERSN                                    
   2   29-JUN-05 2BSM    1       JRNL                                     
   1   02-JUN-05 2BSM    0                                                

>  <REMARK>
   4 2BSM COMPLIES WITH FORMAT V. 3.30, 13-JUL-11                         
 800 SITE_DESCRIPTION: BINDING SITE FOR RESIDUE BSM A1224                 

>  <DBREF>
 2BSM A    2   236  UNP    P07900   HS90A_HUMAN      1    235             

>  <SEQADV>
 2BSM SER A   63  UNP  P07900    THR    62 CONFLICT                       

>  <HET>
 BSM  A1224      27                                                       

>  <HETNAM>
     BSM 5-(5-CHLORO-2,4-DIHYDROXYPHENYL)-N-ETHYL-4-(4-                   
   2 BSM  METHOXYPHENYL)-1H-PYRAZOLE-3-CARBOXAMIDE                        

>  <FORMUL>
   2  BSM    C19 H18 CL N3 O4                                             

$$$$
