@<TRIPOS>MOLECULE
/web/media/ligands/2BSM_ligand.pdb
 27 29 0 0 0
SMALL
GASTEIGER

@<TRIPOS>ATOM
      1 C          35.0300    5.5210   21.5590 C.3     1  UNL1        0.2525
      2 O          35.4700    6.0780   22.7990 O.3     1  UNL1       -0.4714
      3 C          34.4740    6.6820   23.5620 C.ar    1  UNL1        0.1387
      4 C          33.1400    6.8550   23.1240 C.ar    1  UNL1        0.0369
      5 C          32.1930    7.4710   23.9890 C.ar    1  UNL1        0.0032
      6 C          34.8200    7.1250   24.8320 C.ar    1  UNL1        0.0369
      7 C          33.8950    7.7530   25.6730 C.ar    1  UNL1        0.0032
      8 C          32.5790    7.9360   25.2640 C.ar    1  UNL1        0.0034
      9 C          31.6570    8.5710   26.1310 C.ar    1  UNL1        0.0434
     10 C          31.3230    8.1960   27.4090 C.ar    1  UNL1        0.1591
     11 C          31.8440    7.0080   28.2280 C.2     1  UNL1        0.2843
     12 O          32.3840    6.0480   27.7010 O.2     1  UNL1       -0.2666
     13 N          31.6730    7.1410   29.5480 N.am    1  UNL1       -0.2003
     14 C          32.0460    6.1200   30.5660 C.3     1  UNL1        0.1156
     15 C          33.4590    5.5720   30.3570 C.3     1  UNL1        0.0253
     16 N          30.4190    9.0730   27.8520 N.ar    1  UNL1       -0.1433
     17 N          30.1470    9.9480   26.9810 N.ar    1  UNL1       -0.1477
     18 C          30.8870    9.7460   25.8920 C.ar    1  UNL1        0.1076
     19 C          30.8960   10.5090   24.7240 C.ar    1  UNL1        0.0594
     20 C          32.0850   11.0070   24.2240 C.ar    1  UNL1        0.0194
     21 C          32.0980   11.7910   23.0590 C.ar    1  UNL1        0.0967
     22 CL         33.5840   12.4180   22.4400 Cl      1  UNL1       -0.0789
     23 C          30.9090   12.0920   22.4120 C.ar    1  UNL1        0.2093
     24 O          30.9180   12.8280   21.2740 O.3     1  UNL1       -0.2856
     25 C          29.7020   11.5950   22.9230 C.ar    1  UNL1        0.0849
     26 C          29.7050   10.8360   24.0920 C.ar    1  UNL1        0.2004
     27 O          28.5470   10.3880   24.5870 O.3     1  UNL1       -0.2864
@<TRIPOS>BOND
     1     1     2    1
     2     2     3    1
     3     3     6   ar
     4     4     3   ar
     5     4     5   ar
     6     5     8   ar
     7     6     7   ar
     8     8     7   ar
     9     8     9    1
    10     9    10   ar
    11    10    16   ar
    12    10    11    1
    13    11    13   am
    14    12    11    2
    15    13    14    1
    16    15    14    1
    17    17    16   ar
    18    18     9   ar
    19    18    17   ar
    20    19    18    1
    21    20    19   ar
    22    21    20   ar
    23    22    21    1
    24    23    25   ar
    25    23    21   ar
    26    24    23    1
    27    25    26   ar
    28    26    27    1
    29    26    19   ar
