@<TRIPOS>MOLECULE
/web/media/ligands/2VCJ_ligand.pdb
 32 35 0 0 0
SMALL
GASTEIGER

@<TRIPOS>ATOM
      1 C          36.0920    4.7760   23.9480 C.3     1  UNL1        0.1049
      2 C          37.0300    3.6260   23.6890 C.3     1  UNL1        0.1595
      3 O          37.4070    3.7880   22.3460 O.3     1  UNL1       -0.3508
      4 C          36.4110    3.3290   21.5060 C.3     1  UNL1        0.1595
      5 C          35.4780    4.5100   21.4960 C.3     1  UNL1        0.1049
      6 N          35.7050    5.3550   22.6660 N.3     1  UNL1       -0.2646
      7 C          35.5330    6.7900   22.5390 C.3     1  UNL1        0.0993
      8 C          34.5530    7.2940   23.5700 C.ar    1  UNL1       -0.0061
      9 C          35.0100    7.9950   24.6650 C.ar    1  UNL1       -0.0029
     10 C          34.1330    8.4620   25.6150 C.ar    1  UNL1       -0.0001
     11 C          33.2110    7.0600   23.4110 C.ar    1  UNL1       -0.0029
     12 C          32.3300    7.5250   24.3630 C.ar    1  UNL1       -0.0001
     13 C          32.7890    8.2220   25.4630 C.ar    1  UNL1        0.0047
     14 C          31.8790    8.7000   26.3770 C.ar    1  UNL1        0.0626
     15 C          31.5530    8.2050   27.6140 C.ar    1  UNL1        0.1776
     16 C          32.1590    7.0110   28.3040 C.2     1  UNL1        0.2858
     17 O          32.8350    6.1970   27.7070 O.2     1  UNL1       -0.2666
     18 N          32.0040    7.0180   29.6070 N.am    1  UNL1       -0.2003
     19 C          32.5270    5.9630   30.4700 C.3     1  UNL1        0.1156
     20 C          34.0280    6.1100   30.6460 C.3     1  UNL1        0.0253
     21 N          30.6360    8.9740   28.1520 N.ar    1  UNL1       -0.0723
     22 O          30.3430    9.9890   27.2470 O.2     1  UNL1       -0.3531
     23 C          31.1120    9.8140   26.1610 C.ar    1  UNL1        0.1800
     24 C          31.1350   10.6160   25.0320 C.ar    1  UNL1        0.0771
     25 C          32.3420   11.0120   24.4870 C.ar    1  UNL1        0.0210
     26 C          32.3680   11.8170   23.3560 C.ar    1  UNL1        0.0968
     27 CL         33.8320   12.3300   22.6330 Cl      1  UNL1       -0.0789
     28 C          31.1910   12.2230   22.7830 C.ar    1  UNL1        0.2093
     29 O          31.2280   12.9990   21.6910 O.3     1  UNL1       -0.2856
     30 C          29.9880   11.8280   23.3320 C.ar    1  UNL1        0.0850
     31 C          29.9670   11.0340   24.4550 C.ar    1  UNL1        0.2019
     32 O          28.8030   10.6630   24.9840 O.3     1  UNL1       -0.2864
@<TRIPOS>BOND
     1     2     1    1
     2     3     2    1
     3     4     3    1
     4     5     4    1
     5     5     6    1
     6     6     1    1
     7     7     6    1
     8     7     8    1
     9     8     9   ar
    10     9    10   ar
    11    11     8   ar
    12    11    12   ar
    13    12    13   ar
    14    13    10   ar
    15    13    14    1
    16    14    15   ar
    17    15    21   ar
    18    15    16    1
    19    16    18   am
    20    17    16    2
    21    18    19    1
    22    19    20    1
    23    22    21   ar
    24    23    14   ar
    25    23    22   ar
    26    24    23    1
    27    25    24   ar
    28    26    25   ar
    29    27    26    1
    30    28    30   ar
    31    28    26   ar
    32    29    28    1
    33    30    31   ar
    34    31    32    1
    35    31    24   ar
