@<TRIPOS>MOLECULE
/web/media/ligands/2X22_ligand.pdb
 21 22 0 0 0
SMALL
GASTEIGER

@<TRIPOS>ATOM
      1 O         -16.3640  -33.1310   16.5740 O.3     1  UNL1       -0.2833
      2 C         -16.4270  -34.4610   16.8810 C.ar    1  UNL1        0.2295
      3 C         -15.3910  -35.1190   17.5510 C.ar    1  UNL1        0.0410
      4 C         -15.5180  -36.4760   17.8320 C.ar    1  UNL1       -0.0188
      5 C         -14.3680  -37.1940   18.5250 C.3     1  UNL1        0.0265
      6 C         -13.5770  -37.7830   17.3480 C.3     1  UNL1        0.0047
      7 C         -12.2750  -38.4580   17.7440 C.3     1  UNL1        0.0003
      8 C         -11.2390  -38.4450   16.6190 C.3     1  UNL1        0.0000
      9 C         -11.6780  -39.2280   15.3910 C.3     1  UNL1        0.0000
     10 C         -11.4570  -40.7170   15.5650 C.3     1  UNL1        0.0000
     11 C         -16.6730  -37.2000   17.4710 C.ar    1  UNL1       -0.0009
     12 C         -17.7590  -36.5890   16.8150 C.ar    1  UNL1        0.0405
     13 C         -17.6460  -35.2260   16.5070 C.ar    1  UNL1        0.1839
     14 O         -18.6350  -34.5590   15.8570 O.3     1  UNL1       -0.4506
     15 C         -18.4750  -34.4700   14.4920 C.ar    1  UNL1        0.1414
     16 C         -17.3620  -34.9760   13.8270 C.ar    1  UNL1        0.0372
     17 C         -17.2510  -34.8340   12.4420 C.ar    1  UNL1        0.0031
     18 C         -18.2520  -34.2060   11.6980 C.ar    1  UNL1       -0.0001
     19 C         -19.3930  -33.7060   12.3230 C.ar    1  UNL1       -0.0012
     20 C         -19.5230  -33.8060   13.7040 C.ar    1  UNL1        0.0127
     21 C         -20.7230  -33.2820   14.4340 C.3     1  UNL1        0.0342
@<TRIPOS>BOND
     1     1     2    1
     2     2     3   ar
     3     3     4   ar
     4     4     5    1
     5     6     7    1
     6     6     5    1
     7     8     7    1
     8     9    10    1
     9     9     8    1
    10    11     4   ar
    11    12    11   ar
    12    13    12   ar
    13    13     2   ar
    14    14    13    1
    15    15    14    1
    16    16    15   ar
    17    17    16   ar
    18    18    19   ar
    19    18    17   ar
    20    19    20   ar
    21    20    21    1
    22    20    15   ar
