/web/media/ligands/2X22_ligand.pdb
 OpenBabel04242009293D

 21 22  0  0  0  0  0  0  0  0999 V2000
  -16.3640  -33.1310   16.5740 O   0  0  0  0  0  0  0  0  0  0  0  0
  -16.4270  -34.4610   16.8810 C   0  0  0  0  0  0  0  0  0  0  0  0
  -15.3910  -35.1190   17.5510 C   0  0  0  0  0  0  0  0  0  0  0  0
  -15.5180  -36.4760   17.8320 C   0  0  0  0  0  0  0  0  0  0  0  0
  -14.3680  -37.1940   18.5250 C   0  0  0  0  0  0  0  0  0  0  0  0
  -13.5770  -37.7830   17.3480 C   0  0  0  0  0  0  0  0  0  0  0  0
  -12.2750  -38.4580   17.7440 C   0  0  0  0  0  0  0  0  0  0  0  0
  -11.2390  -38.4450   16.6190 C   0  0  0  0  0  0  0  0  0  0  0  0
  -11.6780  -39.2280   15.3910 C   0  0  0  0  0  0  0  0  0  0  0  0
  -11.4570  -40.7170   15.5650 C   0  0  0  0  0  0  0  0  0  0  0  0
  -16.6730  -37.2000   17.4710 C   0  0  0  0  0  0  0  0  0  0  0  0
  -17.7590  -36.5890   16.8150 C   0  0  0  0  0  0  0  0  0  0  0  0
  -17.6460  -35.2260   16.5070 C   0  0  0  0  0  0  0  0  0  0  0  0
  -18.6350  -34.5590   15.8570 O   0  0  0  0  0  0  0  0  0  0  0  0
  -18.4750  -34.4700   14.4920 C   0  0  0  0  0  0  0  0  0  0  0  0
  -17.3620  -34.9760   13.8270 C   0  0  0  0  0  0  0  0  0  0  0  0
  -17.2510  -34.8340   12.4420 C   0  0  0  0  0  0  0  0  0  0  0  0
  -18.2520  -34.2060   11.6980 C   0  0  0  0  0  0  0  0  0  0  0  0
  -19.3930  -33.7060   12.3230 C   0  0  0  0  0  0  0  0  0  0  0  0
  -19.5230  -33.8060   13.7040 C   0  0  0  0  0  0  0  0  0  0  0  0
  -20.7230  -33.2820   14.4340 C   0  0  0  0  0  0  0  0  0  0  0  0
  1  2  1  0  0  0  0
  2  3  2  0  0  0  0
  3  4  1  0  0  0  0
  4  5  1  0  0  0  0
  6  7  1  0  0  0  0
  6  5  1  0  0  0  0
  8  7  1  0  0  0  0
  9 10  1  0  0  0  0
  9  8  1  0  0  0  0
 11  4  2  0  0  0  0
 12 11  1  0  0  0  0
 13 12  2  0  0  0  0
 13  2  1  0  0  0  0
 14 13  1  0  0  0  0
 15 14  1  0  0  0  0
 16 15  1  0  0  0  0
 17 16  2  0  0  0  0
 18 19  2  0  0  0  0
 18 17  1  0  0  0  0
 19 20  1  0  0  0  0
 20 21  1  0  0  0  0
 20 15  2  0  0  0  0
M  END
>  <REMARK>
 600 2-(O-TOLYLOXY)-5-HEXYLPHENOL (TCU): TRICLOSAN DERIVATIVE             
 800 SITE_DESCRIPTION: BINDING SITE FOR RESIDUE TCU A1271                 
 800 SITE_DESCRIPTION: BINDING SITE FOR RESIDUE TCU B1271                 

>  <HET>
 TCU  A1271      21                                                       
 TCU  B1271      21                                                       

>  <HETNAM>
     TCU 5-HEXYL-2-(2-METHYLPHENOXY)PHENOL                                

>  <HETSYN>
     TCU 2-(O-TOLYLOXY)-5-HEXYLPHENOL                                     

>  <FORMUL>
   4  TCU    2(C19 H24 O2)                                                

>  <SITE>
   7 AC1 31 TCU A1271  HOH A2051  HOH A2066  HOH A2067                    
   6 AC2 30 THR B 196  ALA B 198  TCU B1271  HOH B2002                    

$$$$
