REMARK  Name = /web/media/ligands/2X22_ligand.pdb
REMARK  7 active torsions:
REMARK  status: ('A' for Active; 'I' for Inactive)
REMARK    1  A    between atoms: C_4  and  C_5
REMARK    2  A    between atoms: C_5  and  C_6
REMARK    3  A    between atoms: C_6  and  C_7
REMARK    4  A    between atoms: C_7  and  C_8
REMARK    5  A    between atoms: C_8  and  C_9
REMARK    6  A    between atoms: C_13  and  O_14
REMARK    7  A    between atoms: O_14  and  C_15
REMARK                            x       y       z     vdW  Elec       q    Type
REMARK                         _______ _______ _______ _____ _____    ______ ____
ROOT
ATOM      1  O   UNL     1     -16.364 -33.131  16.574  0.00  0.00    -0.283 OA
ATOM      2  C   UNL     1     -16.427 -34.461  16.881  0.00  0.00    +0.230 A 
ATOM      3  C   UNL     1     -17.646 -35.226  16.507  0.00  0.00    +0.184 A 
ATOM      4  C   UNL     1     -17.759 -36.589  16.815  0.00  0.00    +0.040 A 
ATOM      5  C   UNL     1     -16.673 -37.200  17.471  0.00  0.00    -0.001 A 
ATOM      6  C   UNL     1     -15.518 -36.476  17.832  0.00  0.00    -0.019 A 
ATOM      7  C   UNL     1     -15.391 -35.119  17.551  0.00  0.00    +0.041 A 
ENDROOT
BRANCH   6   8
ATOM      8  C   UNL     1     -14.368 -37.194  18.525  0.00  0.00    +0.026 C 
BRANCH   8   9
ATOM      9  C   UNL     1     -13.577 -37.783  17.348  0.00  0.00    +0.005 C 
BRANCH   9  10
ATOM     10  C   UNL     1     -12.275 -38.458  17.744  0.00  0.00    +0.000 C 
BRANCH  10  11
ATOM     11  C   UNL     1     -11.239 -38.445  16.619  0.00  0.00    +0.000 C 
BRANCH  11  12
ATOM     12  C   UNL     1     -11.678 -39.228  15.391  0.00  0.00    +0.000 C 
ATOM     13  C   UNL     1     -11.457 -40.717  15.565  0.00  0.00    +0.000 C 
ENDBRANCH  11  12
ENDBRANCH  10  11
ENDBRANCH   9  10
ENDBRANCH   8   9
ENDBRANCH   6   8
BRANCH   3  14
ATOM     14  O   UNL     1     -18.635 -34.559  15.857  0.00  0.00    -0.451 OA
BRANCH  14  15
ATOM     15  C   UNL     1     -18.475 -34.470  14.492  0.00  0.00    +0.141 A 
ATOM     16  C   UNL     1     -19.523 -33.806  13.704  0.00  0.00    +0.013 A 
ATOM     17  C   UNL     1     -20.723 -33.282  14.434  0.00  0.00    +0.034 C 
ATOM     18  C   UNL     1     -19.393 -33.706  12.323  0.00  0.00    -0.001 A 
ATOM     19  C   UNL     1     -18.252 -34.206  11.698  0.00  0.00    -0.000 A 
ATOM     20  C   UNL     1     -17.251 -34.834  12.442  0.00  0.00    +0.003 A 
ATOM     21  C   UNL     1     -17.362 -34.976  13.827  0.00  0.00    +0.037 A 
ENDBRANCH  14  15
ENDBRANCH   3  14
TORSDOF 7
