@<TRIPOS>MOLECULE
/web/media/ligands/2X23_ligand.pdb
 21 22 0 0 0
SMALL
GASTEIGER

@<TRIPOS>ATOM
      1 O         -21.4550   -4.3220  -27.6240 O.3     1  UNL1       -0.2833
      2 C         -21.7880   -4.4230  -28.9580 C.ar    1  UNL1        0.2295
      3 C         -22.1920   -5.6140  -29.5620 C.ar    1  UNL1        0.0410
      4 C         -22.4900   -5.6080  -30.9300 C.ar    1  UNL1       -0.0188
      5 C         -22.8800   -6.9150  -31.6040 C.3     1  UNL1        0.0265
      6 C         -21.5180   -7.4190  -32.1030 C.3     1  UNL1        0.0047
      7 C         -21.5650   -8.7800  -32.7550 C.3     1  UNL1        0.0003
      8 C         -20.1740   -9.3970  -32.7980 C.3     1  UNL1        0.0000
      9 C         -19.2280   -8.6920  -33.7430 C.3     1  UNL1        0.0000
     10 C         -19.3740   -9.1730  -35.1900 C.3     1  UNL1        0.0000
     11 C         -22.4300   -4.4320  -31.6820 C.ar    1  UNL1       -0.0009
     12 C         -22.0340   -3.2130  -31.1410 C.ar    1  UNL1        0.0405
     13 C         -21.7490   -3.1870  -29.7760 C.ar    1  UNL1        0.1839
     14 O         -21.3580   -2.0560  -29.1740 O.3     1  UNL1       -0.4506
     15 C         -19.9990   -1.7270  -29.1250 C.ar    1  UNL1        0.1414
     16 C         -18.9980   -2.5670  -29.6430 C.ar    1  UNL1        0.0372
     17 C         -17.6650   -2.1660  -29.5780 C.ar    1  UNL1        0.0031
     18 C         -17.2950   -0.9540  -28.9790 C.ar    1  UNL1       -0.0001
     19 C         -18.2540   -0.0800  -28.4520 C.ar    1  UNL1       -0.0012
     20 C         -19.6100   -0.4290  -28.5000 C.ar    1  UNL1        0.0127
     21 C         -20.6730    0.4860  -27.9510 C.3     1  UNL1        0.0342
@<TRIPOS>BOND
     1     2     1    1
     2     3     2   ar
     3     4     3   ar
     4     5     4    1
     5     6     5    1
     6     7     6    1
     7     8     7    1
     8     9     8    1
     9    10     9    1
    10    11    12   ar
    11    11     4   ar
    12    12    13   ar
    13    13    14    1
    14    13     2   ar
    15    14    15    1
    16    15    20   ar
    17    16    17   ar
    18    16    15   ar
    19    17    18   ar
    20    18    19   ar
    21    20    19   ar
    22    20    21    1
