@<TRIPOS>MOLECULE
/web/media/ligands/2YKJ_ligand.pdb
 64 29 0 0 0
SMALL
GASTEIGER

@<TRIPOS>ATOM
      1 C          13.1630   14.5080   26.3330 C.3     1  UNL1        0.1297
      2 C          13.1520   14.4950   26.2760 C.1     2  UNL2        0.0000
      3 N          12.9200   14.6840   27.6900 N.3     3  UNL3       -0.1297
      4 N          12.9260   14.6720   27.6520 N.3     1  UNL1       -0.1297
      5 C          11.5990   14.7380   28.1430 C.3     4  UNL4        0.0000
      6 C          11.6030   14.7360   28.1440 C.3     3  UNL3        0.1297
      7 N           9.1460   14.6310   27.3570 N.3     5  UNL5       -0.2150
      8 N           9.1350   14.6340   27.3730 N.3     1  UNL1        0.0000
      9 C          12.1340   14.3720   25.3770 C.1     2  UNL2        0.0000
     10 C          12.1050   14.3630   25.3320 C.3     7  UNL7        0.0000
     11 N           9.6160   14.3480   25.2220 N.1     8  UNL8       -0.1795
     12 N           9.5920   14.3510   25.2370 N.1     9  UNL9       -0.1795
     13 C           8.6090   14.4700   26.1120 C.1     9  UNL9        0.1795
     14 C           8.5930   14.4740   26.1330 C.3     5  UNL5        0.1075
     15 N           3.3120   11.8590   24.7590 N.3     2  UNL2        0.0000
     16 N           3.3040   11.8800   24.7550 N.3     3  UNL3        0.0000
     17 C          10.8140   14.4330   25.8440 C.3     7  UNL7        0.0000
     18 C          10.7850   14.4320   25.8350 C.1     8  UNL8        0.1795
     19 N          -1.4130   10.5800   26.2210 N.pl3  12  UNL12      -0.1217
     20 N          -1.4040   10.6120   26.1590 N.pl3  13  UNL13      -0.1217
     21 C          10.5250   14.6120   27.2460 C.3     4  UNL4        0.0000
     22 C          10.5070   14.6120   27.2580 C.3     5  UNL5        0.1075
     23 N          -0.0740    9.5580   27.8070 N.pl3  12  UNL12      -0.1217
     24 N          -2.5420   11.6300   24.4050 N.pl3  13  UNL13      -0.1217
     25 C           7.2530   14.4660   25.8850 C.3    14  UNL14       0.0000
     26 C           7.2490   14.4620   25.8820 C.3     4  UNL4        0.0000
     27 C           4.3870   14.7330   25.5160 C.2     5  UNL5       -0.0304
     28 C           4.3600   14.7540   25.4810 C.3     6  UNL6        0.0000
     29 C           5.0990   15.7030   26.2880 C.3    17  UNL17       0.0000
     30 C           5.0760   15.7290   26.2640 C.3     5  UNL5        0.0303
     31 C           6.5120   15.5570   26.4570 C.3    14  UNL14       0.0000
     32 C           6.5000   15.5720   26.4450 C.3    17  UNL17       0.0000
     33 C           2.2180   11.7290   24.0010 C.3     7  UNL7        0.0000
     34 C           2.2150   11.7190   23.9890 C.2    19  UNL19       0.2794
     35 C           0.8680   11.3390   24.7660 C.1    20  UNL20       0.0000
     36 C           1.0530   11.2340   24.9200 C.1    21  UNL21       0.0000
     37 O           2.1940   11.8880   22.7780 O.2    19  UNL19      -0.2794
     38 O           2.1780   11.9140   22.7590 O.3     8  UNL8        0.0000
     39 C          -0.4190   11.6970   24.2800 C.1    22  UNL22       0.0000
     40 C           1.0640   10.5310   26.1700 C.1    23  UNL23       0.0000
     41 C          -1.5390   11.2950   25.0410 C.2    13  UNL13       0.2435
     42 C          -0.1930   10.2330   26.7690 C.2    12  UNL12       0.2435
     43 C           4.5710   12.6170   24.1690 C.1    24  UNL24       0.0000
     44 C           4.5600   12.6250   24.1380 C.3     9  UNL9        0.0000
     45 C           5.0980   13.6430   24.9460 C.2     5  UNL5       -0.0307
     46 C           5.0830   13.6370   24.9110 C.1    24  UNL24       0.0000
     47 C           6.5020   13.4600   25.0980 C.3    10  UNL10       0.0000
     48 C           6.5020   13.4500   25.0750 C.3     5  UNL5        0.0257
     49 C           5.6260   11.6830   23.7870 C.3    11  UNL11       0.0000
     50 C           5.6080   11.6790   23.7630 C.3    28  UNL28       0.0000
     51 C           6.8450   12.2630   24.3910 C.3     5  UNL5        0.0050
     52 C           6.8400   12.2450   24.3800 C.3    29  UNL29       0.0000
     53 C           8.0800   11.5530   24.1790 C.3    29  UNL29       0.0000
     54 C           8.0900   11.5090   24.1700 C.3    30  UNL30       0.0000
     55 C           8.1310   10.3300   23.4080 C.3    30  UNL30       0.0000
     56 C           8.1340   10.2650   23.3910 C.3    31  UNL31       0.0000
     57 C           6.9300    9.7960   22.8360 C.3    31  UNL31       0.0000
     58 C           6.9060    9.7460   22.8080 C.3    12  UNL12       0.0000
     59 C           5.6890   10.4860   23.0320 C.3    28  UNL28       0.0000
     60 C           5.6620   10.4630   23.0010 C.3    13  UNL13       0.0000
     61 C           1.0380   10.5970   25.9870 C.1    21  UNL21       0.0000
     62 C          -0.1780   11.6410   24.2640 C.1    20  UNL20       0.0000
     63 C          -0.1470   10.2460   26.6690 C.1    23  UNL23       0.0000
     64 C          -1.3830   11.2970   24.9400 C.1    22  UNL22       0.0000
@<TRIPOS>BOND
     1     1     4    1
     2     3     6    1
     3     9     2    3
     4    10    17    1
     5    11    18    3
     6    12    13    3
     7    14     7    1
     8    19    42    1
     9    21     5    1
    10    22     7    1
    11    24    41    2
    12    25    31    1
    13    27    30    1
    14    29    32    1
    15    36    61    3
    16    37    34    2
    17    39    64    3
    18    40    63    3
    19    41    20    1
    20    42    23    2
    21    43    46    3
    22    45    48    1
    23    45    27    2
    24    51    48    1
    25    53    52    1
    26    55    54    1
    27    57    56    1
    28    59    50    1
    29    62    35    3
