/web/media/ligands/2YKJ_ligand.pdb
 OpenBabel04242009293D

 64 29  0  0  0  0  0  0  0  0999 V2000
   13.1630   14.5080   26.3330 C   0  0  0  0  0  0  0  0  0  0  0  0
   13.1520   14.4950   26.2760 C   0  0  0  0  0  0  0  0  0  0  0  0
   12.9200   14.6840   27.6900 N   0  0  0  0  0  0  0  0  0  0  0  0
   12.9260   14.6720   27.6520 N   0  0  0  0  0  0  0  0  0  0  0  0
   11.5990   14.7380   28.1430 C   0  0  0  0  0  0  0  0  0  0  0  0
   11.6030   14.7360   28.1440 C   0  0  0  0  0  0  0  0  0  0  0  0
    9.1460   14.6310   27.3570 N   0  0  0  0  0  0  0  0  0  0  0  0
    9.1350   14.6340   27.3730 N   0  0  0  0  0  0  0  0  0  0  0  0
   12.1340   14.3720   25.3770 C   0  0  0  0  0  0  0  0  0  0  0  0
   12.1050   14.3630   25.3320 C   0  0  0  0  0  0  0  0  0  0  0  0
    9.6160   14.3480   25.2220 N   0  0  0  0  0  0  0  0  0  0  0  0
    9.5920   14.3510   25.2370 N   0  0  0  0  0  0  0  0  0  0  0  0
    8.6090   14.4700   26.1120 C   0  0  0  0  0  0  0  0  0  0  0  0
    8.5930   14.4740   26.1330 C   0  0  0  0  0  0  0  0  0  0  0  0
    3.3120   11.8590   24.7590 N   0  0  0  0  0  0  0  0  0  0  0  0
    3.3040   11.8800   24.7550 N   0  0  0  0  0  0  0  0  0  0  0  0
   10.8140   14.4330   25.8440 C   0  0  0  0  0  0  0  0  0  0  0  0
   10.7850   14.4320   25.8350 C   0  0  0  0  0  0  0  0  0  0  0  0
   -1.4130   10.5800   26.2210 N   0  0  0  0  0  0  0  0  0  0  0  0
   -1.4040   10.6120   26.1590 N   0  0  0  0  0  0  0  0  0  0  0  0
   10.5250   14.6120   27.2460 C   0  0  0  0  0  0  0  0  0  0  0  0
   10.5070   14.6120   27.2580 C   0  0  0  0  0  0  0  0  0  0  0  0
   -0.0740    9.5580   27.8070 N   0  0  0  0  0  0  0  0  0  0  0  0
   -2.5420   11.6300   24.4050 N   0  0  0  0  0  0  0  0  0  0  0  0
    7.2530   14.4660   25.8850 C   0  0  0  0  0  0  0  0  0  0  0  0
    7.2490   14.4620   25.8820 C   0  0  0  0  0  0  0  0  0  0  0  0
    4.3870   14.7330   25.5160 C   0  0  0  0  0  0  0  0  0  0  0  0
    4.3600   14.7540   25.4810 C   0  0  0  0  0  0  0  0  0  0  0  0
    5.0990   15.7030   26.2880 C   0  0  0  0  0  0  0  0  0  0  0  0
    5.0760   15.7290   26.2640 C   0  0  0  0  0  0  0  0  0  0  0  0
    6.5120   15.5570   26.4570 C   0  0  0  0  0  0  0  0  0  0  0  0
    6.5000   15.5720   26.4450 C   0  0  0  0  0  0  0  0  0  0  0  0
    2.2180   11.7290   24.0010 C   0  0  0  0  0  0  0  0  0  0  0  0
    2.2150   11.7190   23.9890 C   0  0  0  0  0  0  0  0  0  0  0  0
    0.8680   11.3390   24.7660 C   0  0  0  0  0  0  0  0  0  0  0  0
    1.0530   11.2340   24.9200 C   0  0  0  0  0  0  0  0  0  0  0  0
    2.1940   11.8880   22.7780 O   0  0  0  0  0  0  0  0  0  0  0  0
    2.1780   11.9140   22.7590 O   0  0  0  0  0  0  0  0  0  0  0  0
   -0.4190   11.6970   24.2800 C   0  0  0  0  0  0  0  0  0  0  0  0
    1.0640   10.5310   26.1700 C   0  0  0  0  0  0  0  0  0  0  0  0
   -1.5390   11.2950   25.0410 C   0  0  0  0  0  0  0  0  0  0  0  0
   -0.1930   10.2330   26.7690 C   0  0  0  0  0  0  0  0  0  0  0  0
    4.5710   12.6170   24.1690 C   0  0  0  0  0  0  0  0  0  0  0  0
    4.5600   12.6250   24.1380 C   0  0  0  0  0  0  0  0  0  0  0  0
    5.0980   13.6430   24.9460 C   0  0  0  0  0  0  0  0  0  0  0  0
    5.0830   13.6370   24.9110 C   0  0  0  0  0  0  0  0  0  0  0  0
    6.5020   13.4600   25.0980 C   0  0  0  0  0  0  0  0  0  0  0  0
    6.5020   13.4500   25.0750 C   0  0  0  0  0  0  0  0  0  0  0  0
    5.6260   11.6830   23.7870 C   0  0  0  0  0  0  0  0  0  0  0  0
    5.6080   11.6790   23.7630 C   0  0  0  0  0  0  0  0  0  0  0  0
    6.8450   12.2630   24.3910 C   0  0  0  0  0  0  0  0  0  0  0  0
    6.8400   12.2450   24.3800 C   0  0  0  0  0  0  0  0  0  0  0  0
    8.0800   11.5530   24.1790 C   0  0  0  0  0  0  0  0  0  0  0  0
    8.0900   11.5090   24.1700 C   0  0  0  0  0  0  0  0  0  0  0  0
    8.1310   10.3300   23.4080 C   0  0  0  0  0  0  0  0  0  0  0  0
    8.1340   10.2650   23.3910 C   0  0  0  0  0  0  0  0  0  0  0  0
    6.9300    9.7960   22.8360 C   0  0  0  0  0  0  0  0  0  0  0  0
    6.9060    9.7460   22.8080 C   0  0  0  0  0  0  0  0  0  0  0  0
    5.6890   10.4860   23.0320 C   0  0  0  0  0  0  0  0  0  0  0  0
    5.6620   10.4630   23.0010 C   0  0  0  0  0  0  0  0  0  0  0  0
    1.0380   10.5970   25.9870 C   0  0  0  0  0  0  0  0  0  0  0  0
   -0.1780   11.6410   24.2640 C   0  0  0  0  0  0  0  0  0  0  0  0
   -0.1470   10.2460   26.6690 C   0  0  0  0  0  0  0  0  0  0  0  0
   -1.3830   11.2970   24.9400 C   0  0  0  0  0  0  0  0  0  0  0  0
  1  4  1  0  0  0  0
  3  6  1  0  0  0  0
  9  2  3  0  0  0  0
 10 17  1  0  0  0  0
 11 18  3  0  0  0  0
 12 13  3  0  0  0  0
 14  7  1  0  0  0  0
 19 42  1  0  0  0  0
 21  5  1  0  0  0  0
 22  7  1  0  0  0  0
 24 41  2  0  0  0  0
 25 31  1  0  0  0  0
 27 30  1  0  0  0  0
 29 32  1  0  0  0  0
 36 61  3  0  0  0  0
 37 34  2  0  0  0  0
 39 64  3  0  0  0  0
 40 63  3  0  0  0  0
 41 20  1  0  0  0  0
 42 23  2  0  0  0  0
 43 46  3  0  0  0  0
 45 48  1  0  0  0  0
 45 27  2  0  0  0  0
 51 48  1  0  0  0  0
 53 52  1  0  0  0  0
 55 54  1  0  0  0  0
 57 56  1  0  0  0  0
 59 50  1  0  0  0  0
 62 35  3  0  0  0  0
M  END
>  <HEADER>
    CHAPERONE                               27-MAY-11   2YKJ              

>  <REVDAT>
   3   13-JUN-18 2YKJ    1       JRNL   REMARK                            
   2   02-NOV-11 2YKJ    1       JRNL                                     
   1   19-OCT-11 2YKJ    0                                                

>  <REMARK>
   4 2YKJ COMPLIES WITH FORMAT V. 3.30, 13-JUL-11                         
 600  5-C]PYRIDIN-2-YL)-9H-FLUOREN-9-YL]-ISONICOTINAMIDE (YKJ):           
 800 SITE_DESCRIPTION: BINDING SITE FOR RESIDUE YKJ A 1224                

>  <DBREF>
 2YKJ A   18   223  UNP    P07900   HS90A_HUMAN     18    223             

>  <SEQADV>
 2YKJ GLY A   15  UNP  P07900              EXPRESSION TAG                 
 2YKJ HIS A   16  UNP  P07900              EXPRESSION TAG                 
 2YKJ MET A   17  UNP  P07900              EXPRESSION TAG                 

>  <HET>
 YKJ  A1224      64                                                       

>  <HETNAM>
     YKJ 2-AMINO-N-[4-(3H-IMIDAZO[4,5-C]PYRIDIN-2-YL)--9H-                
   2 YKJ  FLUOREN-9-YL]-ISONICOTINAMIDE                                   

>  <FORMUL>
   2  YKJ    C25 H18 N6 O                                                 

$$$$
