REMARK  Name = /web/media/ligands/2YKJ_ligand.pdb
REMARK  1 active torsions:
REMARK  status: ('A' for Active; 'I' for Inactive)
REMARK    1  A    between atoms: C_45  and  C_48
REMARK                            x       y       z     vdW  Elec       q    Type
REMARK                         _______ _______ _______ _____ _____    ______ ____
ROOT
ATOM      1  C   UNL     1      13.163  14.508  26.333  0.00  0.00    +0.130 C 
ATOM      2  N   UNL     1      12.926  14.672  27.652  0.00  0.00    -0.130 NA
ENDROOT
TORSDOF 0
REMARK  Name = /web/media/ligands/2YKJ_ligand.pdb
REMARK  1 active torsions:
REMARK  status: ('A' for Active; 'I' for Inactive)
REMARK    1  A    between atoms: C_45  and  C_48
REMARK                            x       y       z     vdW  Elec       q    Type
REMARK                         _______ _______ _______ _____ _____    ______ ____
ROOT
ATOM      1  C   UNL     1      13.152  14.495  26.276  0.00  0.00    +0.000 C 
ATOM      2  C   UNL     1      12.134  14.372  25.377  0.00  0.00    +0.000 C 
ENDROOT
TORSDOF 0
REMARK  Name = /web/media/ligands/2YKJ_ligand.pdb
REMARK  1 active torsions:
REMARK  status: ('A' for Active; 'I' for Inactive)
REMARK    1  A    between atoms: C_45  and  C_48
REMARK                            x       y       z     vdW  Elec       q    Type
REMARK                         _______ _______ _______ _____ _____    ______ ____
ROOT
ATOM      1  N   UNL     1      12.920  14.684  27.690  0.00  0.00    -0.130 NA
ATOM      2  C   UNL     1      11.603  14.736  28.144  0.00  0.00    +0.130 C 
ENDROOT
TORSDOF 0
REMARK  Name = /web/media/ligands/2YKJ_ligand.pdb
REMARK  1 active torsions:
REMARK  status: ('A' for Active; 'I' for Inactive)
REMARK    1  A    between atoms: C_45  and  C_48
REMARK                            x       y       z     vdW  Elec       q    Type
REMARK                         _______ _______ _______ _____ _____    ______ ____
ROOT
ATOM      1  C   UNL     1      11.599  14.738  28.143  0.00  0.00    +0.000 C 
ATOM      2  C   UNL     1      10.525  14.612  27.246  0.00  0.00    +0.000 C 
ENDROOT
TORSDOF 0
REMARK  Name = /web/media/ligands/2YKJ_ligand.pdb
REMARK  1 active torsions:
REMARK  status: ('A' for Active; 'I' for Inactive)
REMARK    1  A    between atoms: C_45  and  C_48
REMARK                            x       y       z     vdW  Elec       q    Type
REMARK                         _______ _______ _______ _____ _____    ______ ____
ROOT
ATOM      1  N   UNL     1       9.146  14.631  27.357  0.00  0.00    -0.215 NA
ATOM      2  C   UNL     1      10.507  14.612  27.258  0.00  0.00    +0.108 C 
ATOM      3  C   UNL     1       8.593  14.474  26.133  0.00  0.00    +0.108 C 
ENDROOT
TORSDOF 0
REMARK  Name = /web/media/ligands/2YKJ_ligand.pdb
REMARK  1 active torsions:
REMARK  status: ('A' for Active; 'I' for Inactive)
REMARK    1  A    between atoms: C_45  and  C_48
REMARK                            x       y       z     vdW  Elec       q    Type
REMARK                         _______ _______ _______ _____ _____    ______ ____
ROOT
ATOM      1  N   UNL     1       9.135  14.634  27.373  0.00  0.00    +0.000 NA
ENDROOT
TORSDOF 0
REMARK  Name = /web/media/ligands/2YKJ_ligand.pdb
REMARK  1 active torsions:
REMARK  status: ('A' for Active; 'I' for Inactive)
REMARK    1  A    between atoms: C_45  and  C_48
REMARK                            x       y       z     vdW  Elec       q    Type
REMARK                         _______ _______ _______ _____ _____    ______ ____
ROOT
ATOM      1  C   UNL     1      12.105  14.363  25.332  0.00  0.00    +0.000 C 
ATOM      2  C   UNL     1      10.814  14.433  25.844  0.00  0.00    +0.000 C 
ENDROOT
TORSDOF 0
REMARK  Name = /web/media/ligands/2YKJ_ligand.pdb
REMARK  1 active torsions:
REMARK  status: ('A' for Active; 'I' for Inactive)
REMARK    1  A    between atoms: C_45  and  C_48
REMARK                            x       y       z     vdW  Elec       q    Type
REMARK                         _______ _______ _______ _____ _____    ______ ____
ROOT
ATOM      1  N   UNL     1       9.616  14.348  25.222  0.00  0.00    -0.180 NA
ATOM      2  C   UNL     1      10.785  14.432  25.835  0.00  0.00    +0.180 C 
ENDROOT
TORSDOF 0
REMARK  Name = /web/media/ligands/2YKJ_ligand.pdb
REMARK  1 active torsions:
REMARK  status: ('A' for Active; 'I' for Inactive)
REMARK    1  A    between atoms: C_45  and  C_48
REMARK                            x       y       z     vdW  Elec       q    Type
REMARK                         _______ _______ _______ _____ _____    ______ ____
ROOT
ATOM      1  N   UNL     1       9.592  14.351  25.237  0.00  0.00    -0.180 NA
ATOM      2  C   UNL     1       8.609  14.470  26.112  0.00  0.00    +0.180 C 
ENDROOT
TORSDOF 0
REMARK  Name = /web/media/ligands/2YKJ_ligand.pdb
REMARK  1 active torsions:
REMARK  status: ('A' for Active; 'I' for Inactive)
REMARK    1  A    between atoms: C_45  and  C_48
REMARK                            x       y       z     vdW  Elec       q    Type
REMARK                         _______ _______ _______ _____ _____    ______ ____
ROOT
ATOM      1  N   UNL     1       3.312  11.859  24.759  0.00  0.00    +0.000 NA
ENDROOT
TORSDOF 0
REMARK  Name = /web/media/ligands/2YKJ_ligand.pdb
REMARK  1 active torsions:
REMARK  status: ('A' for Active; 'I' for Inactive)
REMARK    1  A    between atoms: C_45  and  C_48
REMARK                            x       y       z     vdW  Elec       q    Type
REMARK                         _______ _______ _______ _____ _____    ______ ____
ROOT
ATOM      1  N   UNL     1       3.304  11.880  24.755  0.00  0.00    +0.000 NA
ENDROOT
TORSDOF 0
REMARK  Name = /web/media/ligands/2YKJ_ligand.pdb
REMARK  1 active torsions:
REMARK  status: ('A' for Active; 'I' for Inactive)
REMARK    1  A    between atoms: C_45  and  C_48
REMARK                            x       y       z     vdW  Elec       q    Type
REMARK                         _______ _______ _______ _____ _____    ______ ____
ROOT
ATOM      1  N   UNL     1      -1.413  10.580  26.221  0.00  0.00    -0.122 NA
ATOM      2  C   UNL     1      -0.193  10.233  26.769  0.00  0.00    +0.243 C 
ATOM      3  N   UNL     1      -0.074   9.558  27.807  0.00  0.00    -0.122 NA
ENDROOT
TORSDOF 0
REMARK  Name = /web/media/ligands/2YKJ_ligand.pdb
REMARK  1 active torsions:
REMARK  status: ('A' for Active; 'I' for Inactive)
REMARK    1  A    between atoms: C_45  and  C_48
REMARK                            x       y       z     vdW  Elec       q    Type
REMARK                         _______ _______ _______ _____ _____    ______ ____
ROOT
ATOM      1  N   UNL     1      -1.404  10.612  26.159  0.00  0.00    -0.122 NA
ATOM      2  C   UNL     1      -1.539  11.295  25.041  0.00  0.00    +0.243 C 
ATOM      3  N   UNL     1      -2.542  11.630  24.405  0.00  0.00    -0.122 NA
ENDROOT
TORSDOF 0
REMARK  Name = /web/media/ligands/2YKJ_ligand.pdb
REMARK  1 active torsions:
REMARK  status: ('A' for Active; 'I' for Inactive)
REMARK    1  A    between atoms: C_45  and  C_48
REMARK                            x       y       z     vdW  Elec       q    Type
REMARK                         _______ _______ _______ _____ _____    ______ ____
ROOT
ATOM      1  C   UNL     1       7.253  14.466  25.885  0.00  0.00    +0.000 C 
ATOM      2  C   UNL     1       6.512  15.557  26.457  0.00  0.00    +0.000 C 
ENDROOT
TORSDOF 0
REMARK  Name = /web/media/ligands/2YKJ_ligand.pdb
REMARK  1 active torsions:
REMARK  status: ('A' for Active; 'I' for Inactive)
REMARK    1  A    between atoms: C_45  and  C_48
REMARK                            x       y       z     vdW  Elec       q    Type
REMARK                         _______ _______ _______ _____ _____    ______ ____
ROOT
ATOM      1  C   UNL     1       7.249  14.462  25.882  0.00  0.00    +0.000 C 
ENDROOT
TORSDOF 0
REMARK  Name = /web/media/ligands/2YKJ_ligand.pdb
REMARK  1 active torsions:
REMARK  status: ('A' for Active; 'I' for Inactive)
REMARK    1  A    between atoms: C_45  and  C_48
REMARK                            x       y       z     vdW  Elec       q    Type
REMARK                         _______ _______ _______ _____ _____    ______ ____
ROOT
ATOM      1  C   UNL     1       4.387  14.733  25.516  0.00  0.00    -0.030 C 
ATOM      2  C   UNL     1       5.098  13.643  24.946  0.00  0.00    -0.031 C 
ATOM      3  C   UNL     1       5.076  15.729  26.264  0.00  0.00    +0.030 C 
ENDROOT
BRANCH   2   4
ATOM      4  C   UNL     1       6.502  13.450  25.075  0.00  0.00    +0.026 C 
ATOM      5  C   UNL     1       6.845  12.263  24.391  0.00  0.00    +0.005 C 
ENDBRANCH   2   4
TORSDOF 1
REMARK  Name = /web/media/ligands/2YKJ_ligand.pdb
REMARK  1 active torsions:
REMARK  status: ('A' for Active; 'I' for Inactive)
REMARK    1  A    between atoms: C_45  and  C_48
REMARK                            x       y       z     vdW  Elec       q    Type
REMARK                         _______ _______ _______ _____ _____    ______ ____
ROOT
ATOM      1  C   UNL     1       4.360  14.754  25.481  0.00  0.00    +0.000 C 
ENDROOT
TORSDOF 0
REMARK  Name = /web/media/ligands/2YKJ_ligand.pdb
REMARK  1 active torsions:
REMARK  status: ('A' for Active; 'I' for Inactive)
REMARK    1  A    between atoms: C_45  and  C_48
REMARK                            x       y       z     vdW  Elec       q    Type
REMARK                         _______ _______ _______ _____ _____    ______ ____
ROOT
ATOM      1  C   UNL     1       5.099  15.703  26.288  0.00  0.00    +0.000 C 
ATOM      2  C   UNL     1       6.500  15.572  26.445  0.00  0.00    +0.000 C 
ENDROOT
TORSDOF 0
REMARK  Name = /web/media/ligands/2YKJ_ligand.pdb
REMARK  1 active torsions:
REMARK  status: ('A' for Active; 'I' for Inactive)
REMARK    1  A    between atoms: C_45  and  C_48
REMARK                            x       y       z     vdW  Elec       q    Type
REMARK                         _______ _______ _______ _____ _____    ______ ____
ROOT
ATOM      1  C   UNL     1       2.218  11.729  24.001  0.00  0.00    +0.000 C 
ENDROOT
TORSDOF 0
REMARK  Name = /web/media/ligands/2YKJ_ligand.pdb
REMARK  1 active torsions:
REMARK  status: ('A' for Active; 'I' for Inactive)
REMARK    1  A    between atoms: C_45  and  C_48
REMARK                            x       y       z     vdW  Elec       q    Type
REMARK                         _______ _______ _______ _____ _____    ______ ____
ROOT
ATOM      1  C   UNL     1       2.215  11.719  23.989  0.00  0.00    +0.279 C 
ATOM      2  O   UNL     1       2.194  11.888  22.778  0.00  0.00    -0.279 OA
ENDROOT
TORSDOF 0
REMARK  Name = /web/media/ligands/2YKJ_ligand.pdb
REMARK  1 active torsions:
REMARK  status: ('A' for Active; 'I' for Inactive)
REMARK    1  A    between atoms: C_45  and  C_48
REMARK                            x       y       z     vdW  Elec       q    Type
REMARK                         _______ _______ _______ _____ _____    ______ ____
ROOT
ATOM      1  C   UNL     1       0.868  11.339  24.766  0.00  0.00    +0.000 C 
ATOM      2  C   UNL     1      -0.178  11.641  24.264  0.00  0.00    +0.000 C 
ENDROOT
TORSDOF 0
REMARK  Name = /web/media/ligands/2YKJ_ligand.pdb
REMARK  1 active torsions:
REMARK  status: ('A' for Active; 'I' for Inactive)
REMARK    1  A    between atoms: C_45  and  C_48
REMARK                            x       y       z     vdW  Elec       q    Type
REMARK                         _______ _______ _______ _____ _____    ______ ____
ROOT
ATOM      1  C   UNL     1       1.053  11.234  24.920  0.00  0.00    +0.000 C 
ATOM      2  C   UNL     1       1.038  10.597  25.987  0.00  0.00    +0.000 C 
ENDROOT
TORSDOF 0
REMARK  Name = /web/media/ligands/2YKJ_ligand.pdb
REMARK  1 active torsions:
REMARK  status: ('A' for Active; 'I' for Inactive)
REMARK    1  A    between atoms: C_45  and  C_48
REMARK                            x       y       z     vdW  Elec       q    Type
REMARK                         _______ _______ _______ _____ _____    ______ ____
ROOT
ATOM      1  O   HOH     1       2.178  11.914  22.759  0.00  0.00    +0.000 OA
ENDROOT
TORSDOF 0
REMARK  Name = /web/media/ligands/2YKJ_ligand.pdb
REMARK  1 active torsions:
REMARK  status: ('A' for Active; 'I' for Inactive)
REMARK    1  A    between atoms: C_45  and  C_48
REMARK                            x       y       z     vdW  Elec       q    Type
REMARK                         _______ _______ _______ _____ _____    ______ ____
ROOT
ATOM      1  C   UNL     1      -0.419  11.697  24.280  0.00  0.00    +0.000 C 
ATOM      2  C   UNL     1      -1.383  11.297  24.940  0.00  0.00    +0.000 C 
ENDROOT
TORSDOF 0
REMARK  Name = /web/media/ligands/2YKJ_ligand.pdb
REMARK  1 active torsions:
REMARK  status: ('A' for Active; 'I' for Inactive)
REMARK    1  A    between atoms: C_45  and  C_48
REMARK                            x       y       z     vdW  Elec       q    Type
REMARK                         _______ _______ _______ _____ _____    ______ ____
ROOT
ATOM      1  C   UNL     1       1.064  10.531  26.170  0.00  0.00    +0.000 C 
ATOM      2  C   UNL     1      -0.147  10.246  26.669  0.00  0.00    +0.000 C 
ENDROOT
TORSDOF 0
REMARK  Name = /web/media/ligands/2YKJ_ligand.pdb
REMARK  1 active torsions:
REMARK  status: ('A' for Active; 'I' for Inactive)
REMARK    1  A    between atoms: C_45  and  C_48
REMARK                            x       y       z     vdW  Elec       q    Type
REMARK                         _______ _______ _______ _____ _____    ______ ____
ROOT
ATOM      1  C   UNL     1       4.571  12.617  24.169  0.00  0.00    +0.000 C 
ATOM      2  C   UNL     1       5.083  13.637  24.911  0.00  0.00    +0.000 C 
ENDROOT
TORSDOF 0
REMARK  Name = /web/media/ligands/2YKJ_ligand.pdb
REMARK  1 active torsions:
REMARK  status: ('A' for Active; 'I' for Inactive)
REMARK    1  A    between atoms: C_45  and  C_48
REMARK                            x       y       z     vdW  Elec       q    Type
REMARK                         _______ _______ _______ _____ _____    ______ ____
ROOT
ATOM      1  C   UNL     1       4.560  12.625  24.138  0.00  0.00    +0.000 C 
ENDROOT
TORSDOF 0
REMARK  Name = /web/media/ligands/2YKJ_ligand.pdb
REMARK  1 active torsions:
REMARK  status: ('A' for Active; 'I' for Inactive)
REMARK    1  A    between atoms: C_45  and  C_48
REMARK                            x       y       z     vdW  Elec       q    Type
REMARK                         _______ _______ _______ _____ _____    ______ ____
ROOT
ATOM      1  C   UNL     1       6.502  13.460  25.098  0.00  0.00    +0.000 C 
ENDROOT
TORSDOF 0
REMARK  Name = /web/media/ligands/2YKJ_ligand.pdb
REMARK  1 active torsions:
REMARK  status: ('A' for Active; 'I' for Inactive)
REMARK    1  A    between atoms: C_45  and  C_48
REMARK                            x       y       z     vdW  Elec       q    Type
REMARK                         _______ _______ _______ _____ _____    ______ ____
ROOT
ATOM      1  C   UNL     1       5.626  11.683  23.787  0.00  0.00    +0.000 C 
ENDROOT
TORSDOF 0
REMARK  Name = /web/media/ligands/2YKJ_ligand.pdb
REMARK  1 active torsions:
REMARK  status: ('A' for Active; 'I' for Inactive)
REMARK    1  A    between atoms: C_45  and  C_48
REMARK                            x       y       z     vdW  Elec       q    Type
REMARK                         _______ _______ _______ _____ _____    ______ ____
ROOT
ATOM      1  C   UNL     1       5.608  11.679  23.763  0.00  0.00    +0.000 C 
ATOM      2  C   UNL     1       5.689  10.486  23.032  0.00  0.00    +0.000 C 
ENDROOT
TORSDOF 0
REMARK  Name = /web/media/ligands/2YKJ_ligand.pdb
REMARK  1 active torsions:
REMARK  status: ('A' for Active; 'I' for Inactive)
REMARK    1  A    between atoms: C_45  and  C_48
REMARK                            x       y       z     vdW  Elec       q    Type
REMARK                         _______ _______ _______ _____ _____    ______ ____
ROOT
ATOM      1  C   UNL     1       6.840  12.245  24.380  0.00  0.00    +0.000 C 
ATOM      2  C   UNL     1       8.080  11.553  24.179  0.00  0.00    +0.000 C 
ENDROOT
TORSDOF 0
REMARK  Name = /web/media/ligands/2YKJ_ligand.pdb
REMARK  1 active torsions:
REMARK  status: ('A' for Active; 'I' for Inactive)
REMARK    1  A    between atoms: C_45  and  C_48
REMARK                            x       y       z     vdW  Elec       q    Type
REMARK                         _______ _______ _______ _____ _____    ______ ____
ROOT
ATOM      1  C   UNL     1       8.090  11.509  24.170  0.00  0.00    +0.000 C 
ATOM      2  C   UNL     1       8.131  10.330  23.408  0.00  0.00    +0.000 C 
ENDROOT
TORSDOF 0
REMARK  Name = /web/media/ligands/2YKJ_ligand.pdb
REMARK  1 active torsions:
REMARK  status: ('A' for Active; 'I' for Inactive)
REMARK    1  A    between atoms: C_45  and  C_48
REMARK                            x       y       z     vdW  Elec       q    Type
REMARK                         _______ _______ _______ _____ _____    ______ ____
ROOT
ATOM      1  C   UNL     1       8.134  10.265  23.391  0.00  0.00    +0.000 C 
ATOM      2  C   UNL     1       6.930   9.796  22.836  0.00  0.00    +0.000 C 
ENDROOT
TORSDOF 0
REMARK  Name = /web/media/ligands/2YKJ_ligand.pdb
REMARK  1 active torsions:
REMARK  status: ('A' for Active; 'I' for Inactive)
REMARK    1  A    between atoms: C_45  and  C_48
REMARK                            x       y       z     vdW  Elec       q    Type
REMARK                         _______ _______ _______ _____ _____    ______ ____
ROOT
ATOM      1  C   UNL     1       6.906   9.746  22.808  0.00  0.00    +0.000 C 
ENDROOT
TORSDOF 0
REMARK  Name = /web/media/ligands/2YKJ_ligand.pdb
REMARK  1 active torsions:
REMARK  status: ('A' for Active; 'I' for Inactive)
REMARK    1  A    between atoms: C_45  and  C_48
REMARK                            x       y       z     vdW  Elec       q    Type
REMARK                         _______ _______ _______ _____ _____    ______ ____
ROOT
ATOM      1  C   UNL     1       5.662  10.463  23.001  0.00  0.00    +0.000 C 
ENDROOT
TORSDOF 0
