REMARK  Name = /web/media/ligands/3BJM_ligand.pdb
REMARK  3 active torsions:
REMARK  status: ('A' for Active; 'I' for Inactive)
REMARK    1  A    between atoms: C_1  and  C_2
REMARK    2  A    between atoms: C_2  and  C_17
REMARK    3  A    between atoms: C_13  and  C_23
REMARK                            x       y       z     vdW  Elec       q    Type
REMARK                         _______ _______ _______ _____ _____    ______ ____
ROOT
ATOM      1  C   UNL     1      46.417  51.403  36.461  0.00  0.00    +0.168 C 
ATOM      2  N   UNL     1      45.883  52.757  36.426  0.00  0.00    -0.123 NA
ENDROOT
BRANCH   1   3
ATOM      3  C   UNL     1      46.780  50.851  35.045  0.00  0.00    +0.027 C 
ATOM      4  C   UNL     1      47.888  51.615  34.247  0.00  0.00    +0.002 C 
ATOM      5  C   UNL     1      48.277  50.883  32.887  0.00  0.00    +0.002 C 
ATOM      6  C   UNL     1      48.642  49.361  33.142  0.00  0.00    +0.030 C 
ATOM      7  C   UNL     1      47.454  48.652  33.913  0.00  0.00    +0.127 C 
ATOM      8  C   UNL     1      46.143  48.736  33.099  0.00  0.00    +0.030 C 
ATOM      9  C   UNL     1      45.788  50.190  32.767  0.00  0.00    +0.002 C 
ATOM     10  O   UNL     1      47.547  47.289  34.222  0.00  0.00    -0.226 OA
ATOM     11  C   UNL     1      46.977  50.904  32.003  0.00  0.00    +0.000 C 
ATOM     12  C   UNL     1      45.510  50.832  34.152  0.00  0.00    +0.002 C 
ATOM     13  C   UNL     1      47.285  49.386  35.253  0.00  0.00    +0.032 C 
ENDBRANCH   1   3
BRANCH   1  14
ATOM     14  C   UNL     1      47.652  51.445  37.398  0.00  0.00    +0.243 C 
ATOM     15  O   UNL     1      48.539  52.284  37.257  0.00  0.00    -0.273 OA
ATOM     16  N   UNL     1      47.703  50.527  38.375  0.00  0.00    -0.280 N 
ATOM     17  C   UNL     1      48.686  50.700  39.480  0.00  0.00    +0.094 C 
ATOM     18  C   UNL     1      48.181  50.020  40.690  0.00  0.00    +0.023 C 
ATOM     19  C   UNL     1      47.223  49.007  40.090  0.00  0.00    +0.022 C 
ATOM     20  C   UNL     1      47.564  48.194  38.886  0.00  0.00    +0.022 C 
ATOM     21  C   UNL     1      46.735  49.442  38.775  0.00  0.00    +0.075 C 
BRANCH  17  22
ATOM     22  C   UNL     1      50.139  50.241  39.110  0.00  0.00    +0.129 C 
ATOM     23  N   UNL     1      50.300  49.757  37.842  0.00  0.00    -0.130 NA
ENDBRANCH  17  22
ENDBRANCH   1  14
TORSDOF 3
