/web/media/ligands/3BJM_ligand.pdb
 OpenBabel04242009293D

 23 27  0  0  1  0  0  0  0  0999 V2000
   46.7800   50.8510   35.0450 C   0  0  1  0  0  0  0  0  0  0  0  0
   46.4170   51.4030   36.4610 C   0  0  1  0  0  0  0  0  0  0  0  0
   47.2850   49.3860   35.2530 C   0  0  0  0  0  0  0  0  0  0  0  0
   47.4540   48.6520   33.9130 C   0  0  1  0  0  0  0  0  0  0  0  0
   45.7880   50.1900   32.7670 C   0  0  2  0  0  0  0  0  0  0  0  0
   48.2770   50.8830   32.8870 C   0  0  1  0  0  0  0  0  0  0  0  0
   46.1430   48.7360   33.0990 C   0  0  0  0  0  0  0  0  0  0  0  0
   48.6420   49.3610   33.1420 C   0  0  0  0  0  0  0  0  0  0  0  0
   46.9770   50.9040   32.0030 C   0  0  0  0  0  0  0  0  0  0  0  0
   47.2230   49.0070   40.0900 C   0  0  1  0  0  0  0  0  0  0  0  0
   47.5640   48.1940   38.8860 C   0  0  0  0  0  0  0  0  0  0  0  0
   48.1810   50.0200   40.6900 C   0  0  0  0  0  0  0  0  0  0  0  0
   50.1390   50.2410   39.1100 C   0  0  0  0  0  0  0  0  0  0  0  0
   50.3000   49.7570   37.8420 N   0  0  0  0  0  0  0  0  0  0  0  0
   45.5100   50.8320   34.1520 C   0  0  0  0  0  0  0  0  0  0  0  0
   47.8880   51.6150   34.2470 C   0  0  0  0  0  0  0  0  0  0  0  0
   47.6520   51.4450   37.3980 C   0  0  0  0  0  0  0  0  0  0  0  0
   45.8830   52.7570   36.4260 N   0  0  0  0  0  0  0  0  0  0  0  0
   47.7030   50.5270   38.3750 N   0  0  0  0  0  0  0  0  0  0  0  0
   48.5390   52.2840   37.2570 O   0  0  0  0  0  0  0  0  0  0  0  0
   47.5470   47.2890   34.2220 O   0  0  0  0  0  0  0  0  0  0  0  0
   46.7350   49.4420   38.7750 C   0  0  2  0  0  0  0  0  0  0  0  0
   48.6860   50.7000   39.4800 C   0  0  1  0  0  0  0  0  0  0  0  0
  1  3  1  0  0  0  0
  1  2  1  1  0  0  0
  2 18  1  6  0  0  0
  2 17  1  0  0  0  0
  4 21  1  1  0  0  0
  4  3  1  0  0  0  0
  5  9  1  1  0  0  0
  5  7  1  0  0  0  0
  5 15  1  0  0  0  0
  6  9  1  6  0  0  0
  6  8  1  0  0  0  0
  6 16  1  0  0  0  0
  7  4  1  0  0  0  0
  8  4  1  0  0  0  0
 10 11  1  6  0  0  0
 10 12  1  0  0  0  0
 14 13  1  0  0  0  0
 15  1  1  0  0  0  0
 16  1  1  0  0  0  0
 17 19  1  0  0  0  0
 19 22  1  0  0  0  0
 19 23  1  0  0  0  0
 20 17  2  0  0  0  0
 22 11  1  6  0  0  0
 22 10  1  0  0  0  0
 23 13  1  6  0  0  0
 23 12  1  0  0  0  0
M  END
>  <HEADER>
    HYDROLASE                               04-DEC-07   3BJM              

>  <REVDAT>
   9   14-FEB-18 3BJM    1       COMPND HETNAM HETSYN FORMUL              
   8   25-OCT-17 3BJM    1       REMARK                                   
   7   20-APR-16 3BJM    1       HETSYN                                   
   6   29-OCT-14 3BJM    1       JRNL                                     
   5   27-JUL-11 3BJM    1       REMARK                                   
   4   13-JUL-11 3BJM    1       VERSN                                    
   3   28-APR-10 3BJM    1       JRNL                                     
   2   24-FEB-09 3BJM    1       VERSN                                    
   1   22-APR-08 3BJM    0                                                

>  <REMARK>
   4 3BJM COMPLIES WITH FORMAT V. 3.30, 13-JUL-11                         
 800 SITE_DESCRIPTION: BINDING SITE FOR RESIDUE BJM A 1                   
 800 SITE_DESCRIPTION: BINDING SITE FOR RESIDUE BJM B 2                   

>  <DBREF>
 3BJM A   39   766  UNP    P27487   DPP4_HUMAN      39    766             
 3BJM B   39   766  UNP    P27487   DPP4_HUMAN      39    766             

>  <HET>
 BJM  A   1      23                                                       
 BJM  B   2      23                                                       

>  <HETNAM>
     BJM (2~{S})-2-AZANYL-1-[(1~{S},3~{S},5~{S})-3-                       
   2 BJM  (IMINOMETHYL)-2-AZABICYCLO[3.1.0]HEXAN-2-YL]-2-                 
   3 BJM  [(5~{R},7~{S})-3-OXIDANYL-1-ADAMANTYL]ETHANONE                  

>  <HETSYN>
     BJM SAXAGLIPTIN, BOUND FORM                                          

>  <FORMUL>
   8  BJM    2(C18 H27 N3 O2)                                             

>  <LINK>
       OG  SER A 630                 C22 BJM A   1     1555   1555  1.38  
       OG  SER B 630                 C22 BJM B   2     1555   1555  1.37  

$$$$
