REMARK  Name = /web/media/ligands/3EKX_ligand.pdb
REMARK  10 active torsions:
REMARK  status: ('A' for Active; 'I' for Inactive)
REMARK    1  A    between atoms: N_7  and  C_18
REMARK    2  A    between atoms: C_8  and  C_11
REMARK    3  A    between atoms: N_12  and  C_13
REMARK    4  A    between atoms: C_18  and  C_19
REMARK    5  A    between atoms: C_19  and  C_20
REMARK    6  A    between atoms: C_20  and  N_22
REMARK    7  A    between atoms: C_20  and  C_23
REMARK    8  A    between atoms: C_23  and  S_34
REMARK    9  A    between atoms: C_24  and  C_26
REMARK   10  A    between atoms: S_34  and  C_35
REMARK                            x       y       z     vdW  Elec       q    Type
REMARK                         _______ _______ _______ _____ _____    ______ ____
ROOT
ATOM      1  C   UNL     1      19.936  29.535  15.793  0.00  0.00    +0.188 C 
ATOM      2  O   UNL     1      20.218  29.192  17.133  0.00  0.00    -0.220 OA
ENDROOT
BRANCH   1   3
ATOM      3  C   UNL     1      20.427  28.349  14.983  0.00  0.00    +0.108 C 
BRANCH   3   8
ATOM      4  C   UNL     1      17.652  27.449  12.799  0.00  0.00    +0.016 C 
ATOM      5  C   UNL     1      18.374  26.811  11.621  0.00  0.00    +0.003 C 
ATOM      6  C   UNL     1      19.663  27.580  11.387  0.00  0.00    +0.025 C 
ATOM      7  C   UNL     1      20.465  27.644  12.689  0.00  0.00    +0.137 C 
ATOM      8  N   UNL     1      19.700  28.322  13.727  0.00  0.00    -0.264 NA
ATOM      9  C   UNL     1      17.542  26.750  10.345  0.00  0.00    +0.000 C 
ATOM     10  C   UNL     1      16.888  28.099  10.083  0.00  0.00    +0.000 C 
ATOM     11  C   UNL     1      16.166  28.586  11.331  0.00  0.00    +0.000 C 
ATOM     12  C   UNL     1      18.519  27.519  14.044  0.00  0.00    +0.072 C 
ATOM     13  C   UNL     1      17.124  28.836  12.494  0.00  0.00    +0.001 C 
BRANCH   7  14
ATOM     14  C   UNL     1      21.710  28.377  12.321  0.00  0.00    +0.256 C 
ATOM     15  O   UNL     1      21.681  29.593  12.185  0.00  0.00    -0.272 OA
ATOM     16  N   UNL     1      22.742  27.555  12.137  0.00  0.00    -0.208 NA
BRANCH  16  17
ATOM     17  C   UNL     1      24.063  27.918  11.675  0.00  0.00    +0.079 C 
ATOM     18  C   UNL     1      24.863  26.630  11.448  0.00  0.00    +0.022 C 
ATOM     19  C   UNL     1      23.961  28.678  10.350  0.00  0.00    +0.022 C 
ATOM     20  C   UNL     1      24.692  28.754  12.789  0.00  0.00    +0.022 C 
ENDBRANCH  16  17
ENDBRANCH   7  14
ENDBRANCH   3   8
ENDBRANCH   1   3
BRANCH   1  21
ATOM     21  C   UNL     1      20.599  30.846  15.391  0.00  0.00    +0.138 C 
BRANCH  21  22
ATOM     22  N   UNL     1      19.883  31.916  16.047  0.00  0.00    -0.200 NA
ATOM     23  C   UNL     1      18.896  32.595  15.470  0.00  0.00    +0.265 C 
ATOM     24  O   UNL     1      18.562  32.485  14.305  0.00  0.00    -0.268 OA
BRANCH  23  25
ATOM     25  C   UNL     1      18.170  33.550  16.360  0.00  0.00    +0.054 A 
ATOM     26  C   UNL     1      18.900  34.427  17.164  0.00  0.00    +0.004 A 
ATOM     27  C   UNL     1      18.281  35.330  18.026  0.00  0.00    +0.003 A 
ATOM     28  C   UNL     1      16.896  35.393  18.100  0.00  0.00    +0.042 A 
ATOM     29  C   UNL     1      16.101  34.547  17.331  0.00  0.00    +0.192 A 
ATOM     30  O   UNL     1      14.786  34.583  17.403  0.00  0.00    -0.287 OA
ATOM     31  C   UNL     1      16.696  33.560  16.406  0.00  0.00    +0.021 A 
ATOM     32  C   UNL     1      15.793  32.667  15.591  0.00  0.00    +0.035 C 
ENDBRANCH  23  25
ENDBRANCH  21  22
BRANCH  21  33
ATOM     33  C   UNL     1      22.074  31.006  15.749  0.00  0.00    +0.086 C 
BRANCH  33  34
ATOM     34  S   UNL     1      22.767  32.328  14.801  0.00  0.00    -0.112 S 
BRANCH  34  35
ATOM     35  C   UNL     1      22.652  33.787  15.649  0.00  0.00    +0.025 A 
ATOM     36  C   UNL     1      22.472  34.943  14.901  0.00  0.00    +0.006 A 
ATOM     37  C   UNL     1      22.360  36.167  15.541  0.00  0.00    +0.001 A 
ATOM     38  C   UNL     1      22.449  36.238  16.925  0.00  0.00    +0.000 A 
ATOM     39  C   UNL     1      22.634  35.080  17.670  0.00  0.00    +0.001 A 
ATOM     40  C   UNL     1      22.735  33.847  17.037  0.00  0.00    +0.006 A 
ENDBRANCH  34  35
ENDBRANCH  33  34
ENDBRANCH  21  33
ENDBRANCH   1  21
TORSDOF 10
