@<TRIPOS>MOLECULE
/web/media/ligands/4DAJ_ligand.pdb
 26 30 0 0 0
SMALL
GASTEIGER

@<TRIPOS>ATOM
      1 C         -15.9420   -7.1100  -43.2580 C.2     1  UNL1        0.3537
      2 O         -16.5330   -7.8900  -43.9960 O.2     1  UNL1       -0.2466
      3 C         -16.4910   -5.4430  -41.5700 C.ar    1  UNL1        0.0493
      4 C         -15.4810   -4.7300  -43.6800 C.ar    1  UNL1        0.0493
      5 C         -16.1000   -6.2750  -40.5450 C.ar    1  UNL1        0.0060
      6 C         -16.2070   -5.8400  -39.2580 C.ar    1  UNL1        0.0073
      7 C         -16.6940   -4.5770  -39.0290 C.ar    1  UNL1        0.0352
      8 C         -14.3370   -4.2190  -43.1210 C.ar    1  UNL1        0.0060
      9 C         -13.5840   -3.3370  -43.8190 C.ar    1  UNL1        0.0073
     10 C         -13.9890   -2.9620  -45.0750 C.ar    1  UNL1        0.0352
     11 O         -11.2350   -6.2350  -42.7090 O.3     1  UNL1       -0.3580
     12 O         -14.7980   -7.5050  -42.5340 O.3     1  UNL1       -0.4503
     13 O         -17.6960   -5.6300  -43.6120 O.3     1  UNL1       -0.2040
     14 S         -17.0080   -3.9860  -40.6920 S.2     1  UNL1       -0.0875
     15 S         -15.5050   -3.9110  -45.2650 S.2     1  UNL1       -0.0875
     16 C         -11.3580  -10.3660  -42.8570 C.3     1  UNL1       -0.0954
     17 C         -12.0070   -8.4380  -41.7030 C.3     1  UNL1       -0.0205
     18 C         -13.3640   -9.0190  -41.4780 C.3     1  UNL1        0.0258
     19 C         -14.2310   -8.7870  -42.6860 C.3     1  UNL1        0.1651
     20 C         -13.5030   -8.8480  -44.0110 C.3     1  UNL1        0.0258
     21 C         -12.1000   -8.3370  -43.8500 C.3     1  UNL1       -0.0205
     22 C         -12.2680   -6.8770  -43.4480 C.3     1  UNL1        0.1220
     23 C         -12.2240   -6.9590  -41.9800 C.3     1  UNL1        0.1220
     24 C          -9.9480   -8.5620  -42.8820 C.3     1  UNL1       -0.0954
     25 C         -16.4420   -5.7050  -43.0490 C.3     1  UNL1        0.2628
     26 N         -11.3490   -8.9460  -42.8270 N.3     1  UNL1        0.3932
@<TRIPOS>BOND
     1     1    25    1
     2     1    12    1
     3     2     1    2
     4     3    14   ar
     5     3     5   ar
     6     4     8   ar
     7     4    25    1
     8     5     6   ar
     9     6     7   ar
    10     9     8   ar
    11    10     9   ar
    12    13    25    1
    13    14     7   ar
    14    15    10   ar
    15    15     4   ar
    16    16    26    1
    17    17    18    1
    18    19    12    1
    19    19    18    1
    20    20    19    1
    21    21    20    1
    22    21    22    1
    23    21    26    1
    24    22    11    1
    25    22    23    1
    26    23    11    1
    27    23    17    1
    28    24    26    1
    29    25     3    1
    30    26    17    1
