/web/media/ligands/4DAJ_ligand.pdb
 OpenBabel04242009293D

 26 30  0  0  1  0  0  0  0  0999 V2000
  -15.9420   -7.1100  -43.2580 C   0  0  0  0  0  0  0  0  0  0  0  0
  -16.5330   -7.8900  -43.9960 O   0  0  0  0  0  0  0  0  0  0  0  0
  -16.4910   -5.4430  -41.5700 C   0  0  0  0  0  0  0  0  0  0  0  0
  -15.4810   -4.7300  -43.6800 C   0  0  0  0  0  0  0  0  0  0  0  0
  -16.1000   -6.2750  -40.5450 C   0  0  0  0  0  0  0  0  0  0  0  0
  -16.2070   -5.8400  -39.2580 C   0  0  0  0  0  0  0  0  0  0  0  0
  -16.6940   -4.5770  -39.0290 C   0  0  0  0  0  0  0  0  0  0  0  0
  -14.3370   -4.2190  -43.1210 C   0  0  0  0  0  0  0  0  0  0  0  0
  -13.5840   -3.3370  -43.8190 C   0  0  0  0  0  0  0  0  0  0  0  0
  -13.9890   -2.9620  -45.0750 C   0  0  0  0  0  0  0  0  0  0  0  0
  -11.2350   -6.2350  -42.7090 O   0  0  0  0  0  0  0  0  0  0  0  0
  -14.7980   -7.5050  -42.5340 O   0  0  0  0  0  0  0  0  0  0  0  0
  -17.6960   -5.6300  -43.6120 O   0  0  0  0  0  0  0  0  0  0  0  0
  -17.0080   -3.9860  -40.6920 S   0  0  0  0  0  0  0  0  0  0  0  0
  -15.5050   -3.9110  -45.2650 S   0  0  0  0  0  0  0  0  0  0  0  0
  -11.3580  -10.3660  -42.8570 C   0  0  0  0  0  0  0  0  0  0  0  0
  -12.0070   -8.4380  -41.7030 C   0  0  2  0  0  0  0  0  0  0  0  0
  -13.3640   -9.0190  -41.4780 C   0  0  0  0  0  0  0  0  0  0  0  0
  -14.2310   -8.7870  -42.6860 C   0  0  2  0  0  0  0  0  0  0  0  0
  -13.5030   -8.8480  -44.0110 C   0  0  0  0  0  0  0  0  0  0  0  0
  -12.1000   -8.3370  -43.8500 C   0  0  1  0  0  0  0  0  0  0  0  0
  -12.2680   -6.8770  -43.4480 C   0  0  1  0  0  0  0  0  0  0  0  0
  -12.2240   -6.9590  -41.9800 C   0  0  2  0  0  0  0  0  0  0  0  0
   -9.9480   -8.5620  -42.8820 C   0  0  0  0  0  0  0  0  0  0  0  0
  -16.4420   -5.7050  -43.0490 C   0  0  0  0  0  0  0  0  0  0  0  0
  -11.3490   -8.9460  -42.8270 N   0  0  0  0  0  0  0  0  0  0  0  0
  1 25  1  0  0  0  0
  1 12  1  0  0  0  0
  2  1  2  0  0  0  0
  3 14  1  0  0  0  0
  3  5  2  0  0  0  0
  4  8  2  0  0  0  0
  4 25  1  0  0  0  0
  5  6  1  0  0  0  0
  6  7  2  0  0  0  0
  9  8  1  0  0  0  0
 10  9  2  0  0  0  0
 13 25  1  0  0  0  0
 14  7  1  0  0  0  0
 15 10  1  0  0  0  0
 15  4  1  0  0  0  0
 16 26  1  0  0  0  0
 17 18  1  6  0  0  0
 19 12  1  1  0  0  0
 19 18  1  0  0  0  0
 20 19  1  0  0  0  0
 21 20  1  1  0  0  0
 21 22  1  0  0  0  0
 21 26  1  0  0  0  0
 22 11  1  6  0  0  0
 22 23  1  0  0  0  0
 23 11  1  6  0  0  0
 23 17  1  0  0  0  0
 24 26  1  0  0  0  0
 25  3  1  0  0  0  0
 26 17  1  0  0  0  0
M  END
>  <REMARK>
 800 SITE_DESCRIPTION: BINDING SITE FOR RESIDUE 0HK A 2000                
 800 SITE_DESCRIPTION: BINDING SITE FOR RESIDUE 0HK B 2000                
 800 SITE_DESCRIPTION: BINDING SITE FOR RESIDUE 0HK C 2000                
 800 SITE_DESCRIPTION: BINDING SITE FOR RESIDUE 0HK D 2000                

>  <HET>
 0HK  A2000      26                                                       
 0HK  B2000      26                                                       
 0HK  C2000      26                                                       
 0HK  D2000      26                                                       

>  <HETNAM>
     0HK (1R,2R,4S,5S,7S)-7-{[HYDROXY(DITHIOPHEN-2-YL)                    
   2 0HK  ACETYL]OXY}-9,9-DIMETHYL-3-OXA-9-                               
   3 0HK  AZONIATRICYCLO[3.3.1.0~2,4~]NONANE                              

>  <HETSYN>
     0HK TIOTROPIUM                                                       

>  <FORMUL>
   5  0HK    4(C19 H22 N O4 S2 1+)                                        

$$$$
