/web/media/ligands/4DQB_ligand.pdb
 OpenBabel04242009293D

 42 41  0  0  1  0  0  0  0  0999 V2000
   23.0170   29.3010   25.9920 C   0  0  0  0  0  0  0  0  0  0  0  0
   34.6690   36.3800   15.3770 C   0  0  0  0  0  0  0  0  0  0  0  0
   41.6380   15.5770   12.0170 C   0  0  0  0  0  0  0  0  0  0  0  0
   33.0170   29.2560   11.4920 O   0  0  0  0  0  0  0  0  0  0  0  0
   14.6300   35.1260   18.1870 N   0  0  0  0  0  0  0  0  0  0  0  0
   15.5770   34.5670   17.3670 C   0  0  0  0  0  0  0  0  0  0  0  0
   16.6270   35.2950   16.7880 C   0  0  0  0  0  0  0  0  0  0  0  0
   17.5370   34.6370   15.9270 C   0  0  0  0  0  0  0  0  0  0  0  0
   17.3770   33.2700   15.6730 C   0  0  0  0  0  0  0  0  0  0  0  0
   16.3320   32.5850   16.2880 C   0  0  0  0  0  0  0  0  0  0  0  0
   15.4400   33.2330   17.1170 C   0  0  0  0  0  0  0  0  0  0  0  0
   18.4040   32.3690   14.7710 S   0  0  0  0  0  0  0  0  0  0  0  0
   17.6230   31.2790   14.2240 O   0  0  0  0  0  0  0  0  0  0  0  0
   19.0850   33.1860   13.8100 O   0  0  0  0  0  0  0  0  0  0  0  0
   19.4700   31.7610   15.7660 N   0  0  0  0  0  0  0  0  0  0  0  0
   20.3960   32.6890   16.4340 C   0  0  0  0  0  0  0  0  0  0  0  0
   21.8920   32.3580   16.4680 C   0  0  0  0  0  0  0  0  0  0  0  0
   22.5110   32.4160   15.0790 C   0  0  0  0  0  0  0  0  0  0  0  0
   22.5660   33.3870   17.3990 C   0  0  0  0  0  0  0  0  0  0  0  0
   19.1890   30.4480   16.3600 C   0  0  0  0  0  0  0  0  0  0  0  0
   20.1430   29.3560   15.8870 C   0  0  1  0  0  0  0  0  0  0  0  0
   20.0620   28.2310   16.7870 O   0  0  0  0  0  0  0  0  0  0  0  0
   19.7880   28.8880   14.4780 C   0  0  1  0  0  0  0  0  0  0  0  0
   20.8470   28.0410   13.9700 N   0  0  0  0  0  0  0  0  0  0  0  0
   21.7020   28.3730   13.0240 C   0  0  0  0  0  0  0  0  0  0  0  0
   21.8100   29.4390   12.4680 O   0  0  0  0  0  0  0  0  0  0  0  0
   22.6080   27.3020   12.7250 O   0  0  0  0  0  0  0  0  0  0  0  0
   23.4110   27.4200   11.5510 C   0  0  1  0  0  0  0  0  0  0  0  0
   24.7450   26.7990   11.9710 C   0  0  0  0  0  0  0  0  0  0  0  0
   24.4930   25.3940   11.8820 O   0  0  0  0  0  0  0  0  0  0  0  0
   23.5210   25.1490   10.8610 C   0  0  1  0  0  0  0  0  0  0  0  0
   22.4910   24.3120   11.3990 O   0  0  0  0  0  0  0  0  0  0  0  0
   21.2260   24.9900   11.3900 C   0  0  0  0  0  0  0  0  0  0  0  0
   21.3960   26.2040   10.4710 C   0  0  0  0  0  0  0  0  0  0  0  0
   22.8990   26.4780   10.4750 C   0  0  1  0  0  0  0  0  0  0  0  0
   18.4780   28.0900   14.3790 C   0  0  0  0  0  0  0  0  0  0  0  0
   18.1330   26.3730   12.5760 C   0  0  0  0  0  0  0  0  0  0  0  0
   17.9270   25.9840   11.2420 C   0  0  0  0  0  0  0  0  0  0  0  0
   17.6790   26.9490   10.2740 C   0  0  0  0  0  0  0  0  0  0  0  0
   17.7250   28.2960   10.6420 C   0  0  0  0  0  0  0  0  0  0  0  0
   17.9550   28.6840   11.9660 C   0  0  0  0  0  0  0  0  0  0  0  0
   18.1710   27.7150   12.9470 C   0  0  0  0  0  0  0  0  0  0  0  0
  6  5  1  0  0  0  0
  7  6  2  0  0  0  0
  8  7  1  0  0  0  0
  9  8  2  0  0  0  0
  9 10  1  0  0  0  0
 10 11  2  0  0  0  0
 11  6  1  0  0  0  0
 12  9  1  0  0  0  0
 12 15  1  0  0  0  0
 13 12  2  0  0  0  0
 14 12  2  0  0  0  0
 15 20  1  0  0  0  0
 15 16  1  0  0  0  0
 16 17  1  0  0  0  0
 17 19  1  0  0  0  0
 18 17  1  0  0  0  0
 21 20  1  0  0  0  0
 21 22  1  1  0  0  0
 23 36  1  1  0  0  0
 23 21  1  0  0  0  0
 24 23  1  0  0  0  0
 25 24  1  0  0  0  0
 26 25  2  0  0  0  0
 27 25  1  0  0  0  0
 28 29  1  0  0  0  0
 28 27  1  1  0  0  0
 30 29  1  0  0  0  0
 31 32  1  1  0  0  0
 31 30  1  0  0  0  0
 33 32  1  0  0  0  0
 34 33  1  0  0  0  0
 35 34  1  1  0  0  0
 35 31  1  0  0  0  0
 35 28  1  0  0  0  0
 37 42  1  0  0  0  0
 38 37  2  0  0  0  0
 39 40  2  0  0  0  0
 39 38  1  0  0  0  0
 40 41  1  0  0  0  0
 41 42  2  0  0  0  0
 42 36  1  0  0  0  0
M  END
>  <REMARK>
   3      T11:   0.0179 T22:   0.0343                                     
   3      S31:   0.0406 S32:  -0.0175 S33:  -0.0393                       
   3      S21:  -0.0034 S22:   0.0175 S23:   0.0505                       
   3      S31:   0.0235 S32:   0.0174 S33:   0.0531                       
   3      S11:  -0.0172 S12:  -0.0284 S13:   0.0746                       
   3      T33:   0.0479 T12:  -0.0017                                     
   3      S11:  -0.0173 S12:   0.0528 S13:   0.0526                       
   3      T33:   0.1017 T12:   0.0182                                     
   3      T13:  -0.0005 T23:  -0.0175                                     
   3      T13:  -0.0170 T23:  -0.0011                                     
   3      T13:   0.0142 T23:  -0.0017                                     
 800 SITE_DESCRIPTION: BINDING SITE FOR RESIDUE 017 B 101                 

>  <HET>
 017  B 101      38                                                       

>  <HETNAM>
     017 (3R,3AS,6AR)-HEXAHYDROFURO[2,3-B]FURAN-3-YL(1S,2R)-3-            
   2 017  [[(4-AMINOPHENYL)SULFONYL](ISOBUTYL)AMINO]-1-BENZYL-2-          
   3 017  HYDROXYPROPYLCARBAMATE                                          

>  <HETSYN>
     017 DARUNAVIR, TMC114, UIC-94017                                     

>  <FORMUL>
   4  017    C27 H37 N3 O7 S                                              

>  <SCALE2>
      0.000000  0.017316  0.000000        0.00000                         

>  <ANISOU>
   92  N   THR A  12     2017   2125   2445    -77     40     16       N  
  594  CA  GLY A  78     1868   1989   2017     32    -44     30       C  
 1008  CB  ILE B  33     2016   2017   2276   -102    -13     66       C  
 1017  CG  GLU B  34     2919   2804   3108   -139     13     93       C  
 1323  C   LEU B  76     2017   2140   2298    -42    124    -18       C  

$$$$
