/web/media/ligands/4OHU_ligand.pdb
 OpenBabel04242009293D

 21 22  0  0  0  0  0  0  0  0999 V2000
    4.7620   19.3850   46.2790 C   0  0  0  0  0  0  0  0  0  0  0  0
    5.4270   20.5790   46.5730 C   0  0  0  0  0  0  0  0  0  0  0  0
    6.4220   20.5990   47.5580 C   0  0  0  0  0  0  0  0  0  0  0  0
    6.7380   19.4300   48.2550 C   0  0  0  0  0  0  0  0  0  0  0  0
    6.0770   18.2240   47.9740 C   0  0  0  0  0  0  0  0  0  0  0  0
    5.0950   18.2200   46.9800 C   0  0  0  0  0  0  0  0  0  0  0  0
    4.3090   16.9370   46.7330 C   0  0  0  0  0  0  0  0  0  0  0  0
    4.5790   16.1300   45.4780 C   0  0  0  0  0  0  0  0  0  0  0  0
    6.0020   16.0050   44.9710 C   0  0  0  0  0  0  0  0  0  0  0  0
    6.3220   14.7050   44.2380 C   0  0  0  0  0  0  0  0  0  0  0  0
    6.8760   14.8250   42.8280 C   0  0  0  0  0  0  0  0  0  0  0  0
    5.8870   14.5850   41.6890 C   0  0  0  0  0  0  0  0  0  0  0  0
    7.7330   19.5020   49.2140 O   0  0  0  0  0  0  0  0  0  0  0  0
    7.0610   21.8120   47.8670 O   0  0  0  0  0  0  0  0  0  0  0  0
    8.3280   21.9450   47.2730 C   0  0  0  0  0  0  0  0  0  0  0  0
    9.0820   23.0790   47.5540 C   0  0  0  0  0  0  0  0  0  0  0  0
   10.3490   23.2810   47.0130 C   0  0  0  0  0  0  0  0  0  0  0  0
   10.8700   22.3160   46.1460 C   0  0  0  0  0  0  0  0  0  0  0  0
   10.1220   21.1750   45.8420 C   0  0  0  0  0  0  0  0  0  0  0  0
    8.8570   20.9880   46.4130 C   0  0  0  0  0  0  0  0  0  0  0  0
    8.3250   24.3820   48.7350 Br  0  0  0  0  0  0  0  0  0  0  0  0
  1  2  2  0  0  0  0
  1  6  1  0  0  0  0
  2  3  1  0  0  0  0
  3 14  1  0  0  0  0
  3  4  2  0  0  0  0
  4 13  1  0  0  0  0
  5  4  1  0  0  0  0
  6  5  2  0  0  0  0
  7  6  1  0  0  0  0
  8  7  1  0  0  0  0
  9  8  1  0  0  0  0
 10  9  1  0  0  0  0
 11 10  1  0  0  0  0
 12 11  1  0  0  0  0
 15 16  1  0  0  0  0
 15 14  1  0  0  0  0
 16 21  1  0  0  0  0
 17 16  2  0  0  0  0
 18 17  1  0  0  0  0
 19 18  2  0  0  0  0
 19 20  1  0  0  0  0
 20 15  2  0  0  0  0
M  END
>  <REMARK>
 800 SITE_DESCRIPTION: BINDING SITE FOR RESIDUE 2TK A 301                 
 800 SITE_DESCRIPTION: BINDING SITE FOR RESIDUE 2TK B 301                 
 800 SITE_DESCRIPTION: BINDING SITE FOR RESIDUE 2TK C 301                 
 800 SITE_DESCRIPTION: BINDING SITE FOR RESIDUE 2TK D 301                 

>  <HET>
 2TK  A 301      21                                                       
 2TK  B 301      21                                                       
 2TK  C 301      21                                                       
 2TK  D 301      21                                                       

>  <HETNAM>
     2TK 2-(2-BROMOPHENOXY)-5-HEXYLPHENOL                                 

>  <FORMUL>
   6  2TK    4(C18 H21 BR O2)                                             

>  <SITE>
   6 AC1 31 ILE A 194  THR A 196  ALA A 198  2TK A 301                    
   7 AC3 33 2TK B 301  HOH B 402  HOH B 406  HOH B 411                    
   7 AC5 32 2TK C 301  HOH C 403  HOH C 409  HOH C 413                    
   7 AC7 32 2TK D 301  HOH D 405  HOH D 409  HOH D 422                    

>  <ANISOU>
 7831  C01 2TK A 301     2085   1769   1356     -7   -297    253       C  
 7831  C01 2TK A 301     2085   1769   1356     -7   -297    253       C  
 7832  C02 2TK A 301     1696   1339    963    -27   -273    276       C  
 7832  C02 2TK A 301     1696   1339    963    -27   -273    276       C  
 7833  C03 2TK A 301     1769   1444   1094    -58   -240    269       C  
 7833  C03 2TK A 301     1769   1444   1094    -58   -240    269       C  
 7834  C04 2TK A 301     1556   1303    940    -66   -231    242       C  
 7834  C04 2TK A 301     1556   1303    940    -66   -231    242       C  
 7835  C05 2TK A 301     1435   1219    822    -44   -250    220       C  
 7835  C05 2TK A 301     1435   1219    822    -44   -250    220       C  
 7836  C06 2TK A 301     1532   1284    863    -17   -283    224       C  
 7836  C06 2TK A 301     1532   1284    863    -17   -283    224       C  
 7837  C07 2TK A 301     1939   1730   1282      2   -310    196       C  
 7837  C07 2TK A 301     1939   1730   1282      2   -310    196       C  
 7838  C08 2TK A 301     3639   3423   2905      8   -307    195       C  
 7838  C08 2TK A 301     3639   3423   2905      8   -307    195       C  
 7839  C09 2TK A 301     3411   3190   2631    -11   -257    210       C  
 7839  C09 2TK A 301     3411   3190   2631    -11   -257    210       C  
 7840  C10 2TK A 301     3398   3195   2579     -6   -245    191       C  
 7840  C10 2TK A 301     3398   3195   2579     -6   -245    191       C  
 7841  C11 2TK A 301     3268   3014   2332     -4   -223    211       C  
 7841  C11 2TK A 301     3268   3014   2332     -4   -223    211       C  
 7842  C12 2TK A 301     3406   3108   2375     21   -268    205       C  
 7842  C12 2TK A 301     3406   3108   2375     21   -268    205       C  
 7843  O13 2TK A 301     1781   1557   1218    -95   -205    237       O  
 7843  O13 2TK A 301     1781   1557   1218    -95   -205    237       O  
 7844  O14 2TK A 301     1902   1533   1226    -82   -220    290       O  
 7844  O14 2TK A 301     1902   1533   1226    -82   -220    290       O  
 7845  C15 2TK A 301     1883   1508   1177   -109   -180    312       C  
 7845  C15 2TK A 301     1883   1508   1177   -109   -180    312       C  
 7846  C16 2TK A 301     2008   1594   1309   -139   -157    333       C  
 7846  C16 2TK A 301     2008   1594   1309   -139   -157    333       C  
 7847  C17 2TK A 301     1961   1544   1246   -169   -114    356       C  
 7847  C17 2TK A 301     1961   1544   1246   -169   -114    356       C  
 7848  C18 2TK A 301     2092   1710   1346   -164    -90    359       C  
 7848  C18 2TK A 301     2092   1710   1346   -164    -90    359       C  
 7849  C19 2TK A 301     2045   1695   1281   -133   -113    337       C  
 7849  C19 2TK A 301     2045   1695   1281   -133   -113    337       C  
 7850  C20 2TK A 301     2068   1723   1327   -107   -160    313       C  
 7850  C20 2TK A 301     2068   1723   1327   -107   -160    313       C  
 7851 BR1  2TK A 301     2055   1587   1394   -139   -183    326      BR  
 7851 BR1  2TK A 301     2055   1587   1394   -139   -183    326      BR  
 7896  C01 2TK B 301     2645   2285   2483     42    -74   -376       C  
 7897  C02 2TK B 301     2359   1968   2258     43    -49   -370       C  
 7898  C03 2TK B 301     2005   1657   1969     54    -27   -323       C  
 7899  C04 2TK B 301     1450   1177   1423     62    -29   -285       C  
 7900  C05 2TK B 301     1745   1502   1664     58    -51   -292       C  
 7901  C06 2TK B 301     2122   1835   1972     50    -72   -336       C  
 7902  C07 2TK B 301     2376   2117   2159     48    -96   -338       C  
 7903  C08 2TK B 301     3109   2888   2914     22   -145   -336       C  
 7904  C09 2TK B 301     3172   2948   2895     18   -179   -352       C  
 7905  C10 2TK B 301     3200   2988   2946     -8   -238   -368       C  
 7906  C11 2TK B 301     3530   3384   3367    -18   -248   -334       C  
 7907  C12 2TK B 301     3926   3805   3793    -39   -304   -344       C  
 7908  O13 2TK B 301     1918   1683   1947     70    -12   -241       O  
 7909  O14 2TK B 301     2018   1632   2034     59     -1   -312       O  
 7910  C15 2TK B 301     2411   2023   2487     28    -20   -311       C  
 7911  C16 2TK B 301     2376   1928   2490     25      3   -312       C  
 7912  C17 2TK B 301     3153   2695   3331     -7     -7   -312       C  
 7913  C18 2TK B 301     3414   3013   3622    -35    -41   -311       C  
 7914  C19 2TK B 301     3178   2836   3347    -30    -66   -310       C  
 7915  C20 2TK B 301     2825   2487   2925      0    -56   -310       C  
 7916 BR1  2TK B 301     2299   1782   2383     71     53   -312      BR  
 7961  C01 2TK C 301     2790   2417   1852      7    -20    244       C  
 7962  C02 2TK C 301     2541   2141   1630     11     48    249       C  
 7963  C03 2TK C 301     2242   1896   1466      9     71    236       C  
 7964  C04 2TK C 301     2226   1953   1543      5     29    219       C  
 7965  C05 2TK C 301     2086   1839   1376      3    -32    217       C  
 7966  C06 2TK C 301     2388   2092   1556      3    -58    229       C  
 7967  C07 2TK C 301     2885   2621   2033     -4   -128    226       C  
 7968  C08 2TK C 301     3671   3459   2879      7   -174    249       C  
 7969  C09 2TK C 301     4471   4227   3616     24   -195    288       C  
 7970  C10 2TK C 301     4345   4163   3561     36   -248    308       C  
 7971  C11 2TK C 301     4697   4483   3854     58   -275    350       C  
 7972  C12 2TK C 301     5088   4893   4201     57   -352    362       C  
 7973  O13 2TK C 301     2417   2190   1853      4     47    206       O  
 7974  O14 2TK C 301     2422   2053   1681      9    136    239       O  
 7975  C15 2TK C 301     2720   2346   2018     16    146    265       C  
 7976  C16 2TK C 301     2429   2034   1774     12    209    270       C  
 7977  C17 2TK C 301     2653   2244   2039     17    225    294       C  
 7978  C18 2TK C 301     3003   2601   2378     31    176    316       C  
 7979  C19 2TK C 301     2742   2368   2076     38    113    313       C  
 7980  C20 2TK C 301     2725   2366   2021     28     97    288       C  
 7981 BR1  2TK C 301     2269   1865   1638      0    278    240      BR  
 8026  C01 2TK D 301     1878   3346   3408   -273   -337    343       C  
 8027  C02 2TK D 301     1710   3215   3316   -296   -275    351       C  
 8028  C03 2TK D 301     1518   2987   3068   -302   -215    357       C  
 8029  C04 2TK D 301     1692   3097   3121   -284   -219    352       C  
 8030  C05 2TK D 301     1711   3081   3071   -262   -280    341       C  
 8031  C06 2TK D 301     1942   3340   3349   -256   -337    338       C  
 8032  C07 2TK D 301     2197   3547   3516   -232   -399    329       C  
 8033  C08 2TK D 301     3231   4492   4416   -264   -437    310       C  
 8034  C09 2TK D 301     3620   4853   4772   -296   -503    294       C  
 8035  C10 2TK D 301     3639   4773   4648   -321   -530    273       C  
 8036  C11 2TK D 301     4161   5242   5079   -313   -592    258       C  
 8037  C12 2TK D 301     4138   5117   4901   -313   -601    241       C  
 8038  O13 2TK D 301     1782   3123   3122   -283   -157    346       O  
 8039  O14 2TK D 301     1406   2905   3022   -323   -147    368       O  
 8040  C15 2TK D 301     1857   3316   3438   -379   -154    363       C  
 8041  C16 2TK D 301     1896   3371   3529   -406    -86    376       C  
 8042  C17 2TK D 301     1791   3220   3390   -462    -88    374       C  
 8043  C18 2TK D 301     1926   3290   3439   -490   -159    357       C  
 8044  C19 2TK D 301     2024   3370   3479   -462   -225    342       C  
 8045  C20 2TK D 301     1831   3225   3320   -408   -222    347       C  
 8046 BR1  2TK D 301     1290   2842   3033   -363     15    394      BR  

$$$$
