REMARK  Name = /web/media/ligands/4OIM_ligand.pdb
REMARK  8 active torsions:
REMARK  status: ('A' for Active; 'I' for Inactive)
REMARK    1  A    between atoms: C_2  and  C_13
REMARK    2  A    between atoms: C_5  and  O_22
REMARK    3  A    between atoms: C_7  and  O_22
REMARK    4  A    between atoms: C_12  and  C_19
REMARK    5  A    between atoms: C_13  and  C_14
REMARK    6  A    between atoms: C_14  and  C_15
REMARK    7  A    between atoms: C_15  and  C_16
REMARK    8  A    between atoms: C_16  and  C_17
REMARK                            x       y       z     vdW  Elec       q    Type
REMARK                         _______ _______ _______ _____ _____    ______ ____
ROOT
ATOM      1  C   UNL     1       2.985 -16.063  12.223  0.00  0.00    +0.041 A 
ATOM      2  C   UNL     1       3.527 -17.155  11.605  0.00  0.00    +0.230 A 
ATOM      3  O   UNL     1       3.967 -17.087  10.274  0.00  0.00    -0.283 OA
ATOM      4  C   UNL     1       3.664 -18.422  12.346  0.00  0.00    +0.184 A 
ATOM      5  C   UNL     1       3.251 -18.524  13.654  0.00  0.00    +0.040 A 
ATOM      6  C   UNL     1       2.689 -17.400  14.299  0.00  0.00    -0.001 A 
ATOM      7  C   UNL     1       2.554 -16.166  13.560  0.00  0.00    -0.019 A 
ENDROOT
BRANCH   4   8
ATOM      8  O   UNL     1       4.194 -19.546  11.693  0.00  0.00    -0.450 OA
BRANCH   8   9
ATOM      9  C   UNL     1       5.594 -19.542  11.632  0.00  0.00    +0.155 A 
ATOM     10  C   UNL     1       6.246 -20.650  10.911  0.00  0.00    +0.103 A 
ATOM     11  C   UNL     1       7.606 -20.730  10.823  0.00  0.00    +0.013 A 
ATOM     12  C   UNL     1       8.395 -19.724  11.419  0.00  0.00    +0.001 A 
ATOM     13  C   UNL     1       7.761 -18.645  12.122  0.00  0.00    +0.003 A 
ATOM     14  C   UNL     1       6.359 -18.581  12.227  0.00  0.00    +0.038 A 
BRANCH  10  15
ATOM     15  C   UNL     1       5.339 -21.695  10.280  0.00  0.00    +0.103 C 
ATOM     16  N   UNL     1       4.600 -22.544   9.764  0.00  0.00    -0.191 NA
ENDBRANCH  10  15
ENDBRANCH   8   9
ENDBRANCH   4   8
BRANCH   7  17
ATOM     17  C   UNL     1       1.987 -14.947  14.272  0.00  0.00    +0.026 C 
BRANCH  17  18
ATOM     18  C   UNL     1       3.028 -14.305  15.184  0.00  0.00    +0.005 C 
BRANCH  18  19
ATOM     19  C   UNL     1       2.610 -13.137  16.058  0.00  0.00    +0.000 C 
BRANCH  19  20
ATOM     20  C   UNL     1       3.742 -12.500  16.855  0.00  0.00    +0.000 C 
BRANCH  20  21
ATOM     21  C   UNL     1       5.107 -12.457  16.175  0.00  0.00    +0.000 C 
ATOM     22  C   UNL     1       5.973 -11.240  16.471  0.00  0.00    +0.000 C 
ENDBRANCH  20  21
ENDBRANCH  19  20
ENDBRANCH  18  19
ENDBRANCH  17  18
ENDBRANCH   7  17
TORSDOF 8
