/web/media/ligands/4OIM_ligand.pdb
 OpenBabel04242009293D

 22 23  0  0  0  0  0  0  0  0999 V2000
    2.9850  -16.0630   12.2230 C   0  0  0  0  0  0  0  0  0  0  0  0
    2.5540  -16.1660   13.5600 C   0  0  0  0  0  0  0  0  0  0  0  0
    2.6890  -17.4000   14.2990 C   0  0  0  0  0  0  0  0  0  0  0  0
    3.2510  -18.5240   13.6540 C   0  0  0  0  0  0  0  0  0  0  0  0
    3.6640  -18.4220   12.3460 C   0  0  0  0  0  0  0  0  0  0  0  0
    3.5270  -17.1550   11.6050 C   0  0  0  0  0  0  0  0  0  0  0  0
    5.5940  -19.5420   11.6320 C   0  0  0  0  0  0  0  0  0  0  0  0
    6.3590  -18.5810   12.2270 C   0  0  0  0  0  0  0  0  0  0  0  0
    7.7610  -18.6450   12.1220 C   0  0  0  0  0  0  0  0  0  0  0  0
    8.3950  -19.7240   11.4190 C   0  0  0  0  0  0  0  0  0  0  0  0
    7.6060  -20.7300   10.8230 C   0  0  0  0  0  0  0  0  0  0  0  0
    6.2460  -20.6500   10.9110 C   0  0  0  0  0  0  0  0  0  0  0  0
    1.9870  -14.9470   14.2720 C   0  0  0  0  0  0  0  0  0  0  0  0
    3.0280  -14.3050   15.1840 C   0  0  0  0  0  0  0  0  0  0  0  0
    2.6100  -13.1370   16.0580 C   0  0  0  0  0  0  0  0  0  0  0  0
    3.7420  -12.5000   16.8550 C   0  0  0  0  0  0  0  0  0  0  0  0
    5.1070  -12.4570   16.1750 C   0  0  0  0  0  0  0  0  0  0  0  0
    5.9730  -11.2400   16.4710 C   0  0  0  0  0  0  0  0  0  0  0  0
    5.3390  -21.6950   10.2800 C   0  0  0  0  0  0  0  0  0  0  0  0
    3.9670  -17.0870   10.2740 O   0  0  0  0  0  0  0  0  0  0  0  0
    4.6000  -22.5440    9.7640 N   0  0  0  0  0  0  0  0  0  0  0  0
    4.1940  -19.5460   11.6930 O   0  0  0  0  0  0  0  0  0  0  0  0
  1  2  1  0  0  0  0
  2 13  1  0  0  0  0
  2  3  2  0  0  0  0
  4  3  1  0  0  0  0
  5  4  2  0  0  0  0
  6  1  2  0  0  0  0
  6  5  1  0  0  0  0
  7 22  1  0  0  0  0
  7  8  2  0  0  0  0
  9  8  1  0  0  0  0
 10  9  2  0  0  0  0
 11 12  2  0  0  0  0
 11 10  1  0  0  0  0
 12  7  1  0  0  0  0
 13 14  1  0  0  0  0
 14 15  1  0  0  0  0
 15 16  1  0  0  0  0
 17 18  1  0  0  0  0
 17 16  1  0  0  0  0
 19 12  1  0  0  0  0
 20  6  1  0  0  0  0
 21 19  3  0  0  0  0
 22  5  1  0  0  0  0
M  END
>  <REMARK>
 800 SITE_DESCRIPTION: BINDING SITE FOR RESIDUE JUS A 302                 

>  <HET>
 JUS  A 302      22                                                       

>  <HETNAM>
     JUS 2-(2-CYANOPHENOXY)-5-HEXYLPHENOL                                 

>  <FORMUL>
   3  JUS    C19 H21 N O2                                                 

>  <SITE>
   6 AC1 31 THR A 196  LEU A 197  ALA A 198  JUS A 302                    
   2 AC4  5 JUS A 302                                                     

>  <ANISOU>
 2112  C1  JUS A 302     4705   2598   2783    254   -563    344       C  
 2112  C1  JUS A 302     4705   2598   2783    254   -563    344       C  
 2113  C2  JUS A 302     4631   2497   2523    206   -555    410       C  
 2113  C2  JUS A 302     4631   2497   2523    206   -555    410       C  
 2114  C3  JUS A 302     5355   2928   2933    250   -616    518       C  
 2114  C3  JUS A 302     5355   2928   2933    250   -616    518       C  
 2115  C4  JUS A 302     5276   2562   2735    352   -688    550       C  
 2115  C4  JUS A 302     5276   2562   2735    352   -688    550       C  
 2116  C5  JUS A 302     5599   2919   3243    407   -693    471       C  
 2116  C5  JUS A 302     5599   2919   3243    407   -693    471       C  
 2117  C6  JUS A 302     5048   2691   3009    352   -627    369       C  
 2117  C6  JUS A 302     5048   2691   3009    352   -627    369       C  
 2118  C8  JUS A 302     5581   2714   3143    729   -830    436       C  
 2118  C8  JUS A 302     5581   2714   3143    729   -830    436       C  
 2119  C9  JUS A 302     5345   2839   3068    791   -848    377       C  
 2119  C9  JUS A 302     5345   2839   3068    791   -848    377       C  
 2120  C10 JUS A 302     5816   3452   3613    993   -926    328       C  
 2120  C10 JUS A 302     5816   3452   3613    993   -926    328       C  
 2121  C11 JUS A 302     6095   3492   3786   1159   -978    340       C  
 2121  C11 JUS A 302     6095   3492   3786   1159   -978    340       C  
 2122  C12 JUS A 302     6256   3232   3749   1105   -958    394       C  
 2122  C12 JUS A 302     6256   3232   3749   1105   -958    394       C  
 2123  C13 JUS A 302     6181   3028   3615    885   -890    441       C  
 2123  C13 JUS A 302     6181   3028   3615    885   -890    441       C  
 2124  C14 JUS A 302     5079   3215   3080    119   -479    366       C  
 2124  C14 JUS A 302     5079   3215   3080    119   -479    366       C  
 2125  C15 JUS A 302     5317   3647   3322    221   -535    299       C  
 2125  C15 JUS A 302     5317   3647   3322    221   -535    299       C  
 2126  C16 JUS A 302     6553   5110   4609    156   -474    240       C  
 2126  C16 JUS A 302     6553   5110   4609    156   -474    240       C  
 2127  C17 JUS A 302     7498   6243   5563    248   -548    153       C  
 2127  C17 JUS A 302     7498   6243   5563    248   -548    153       C  
 2128  C18 JUS A 302     7608   6448   5836    365   -638     88       C  
 2128  C18 JUS A 302     7608   6448   5836    365   -638     88       C  
 2129  C19 JUS A 302     7770   6897   6179    385   -669    -43       C  
 2129  C19 JUS A 302     7770   6897   6179    385   -669    -43       C  
 2130  CAD JUS A 302     6095   2604   3393    766   -852    471       C  
 2130  CAD JUS A 302     6095   2604   3393    766   -852    471       C  
 2131  O17 JUS A 302     4852   2527   2974    409   -629    301       O  
 2131  O17 JUS A 302     4852   2527   2974    409   -629    301       O  
 2132  NAB JUS A 302     6653   2928   3862    656   -823    484       N  
 2132  NAB JUS A 302     6653   2928   3862    656   -823    484       N  
 2133  O7  JUS A 302     5626   2646   3133    520   -756    490       O  
 2133  O7  JUS A 302     5626   2646   3133    520   -756    490       O  

$$$$
