REMARK  Name = /web/media/ligands/4OXY_ligand.pdb
REMARK  5 active torsions:
REMARK  status: ('A' for Active; 'I' for Inactive)
REMARK    1  A    between atoms: C_2  and  O_15
REMARK    2  A    between atoms: C_7  and  O_15
REMARK    3  A    between atoms: C_10  and  C_11
REMARK    4  A    between atoms: C_11  and  C_12
REMARK    5  A    between atoms: C_16  and  N_19
REMARK                            x       y       z     vdW  Elec       q    Type
REMARK                         _______ _______ _______ _____ _____    ______ ____
ROOT
ATOM      1  C   UNL     1      -7.245  -2.532  32.393  0.00  0.00    -0.014 A 
ATOM      2  C   UNL     1      -6.611  -3.713  32.783  0.00  0.00    -0.001 A 
ATOM      3  C   UNL     1      -6.887  -4.930  32.160  0.00  0.00    +0.041 A 
ATOM      4  C   UNL     1      -7.810  -4.960  31.117  0.00  0.00    +0.184 A 
ATOM      5  C   UNL     1      -8.446  -3.777  30.716  0.00  0.00    +0.230 A 
ATOM      6  O   UNL     1      -9.330  -3.837  29.645  0.00  0.00    -0.283 OA
ATOM      7  C   UNL     1      -8.179  -2.553  31.352  0.00  0.00    +0.041 A 
ENDROOT
BRANCH   1   8
ATOM      8  C   UNL     1      -6.894  -1.237  33.118  0.00  0.00    +0.052 C 
BRANCH   8  11
ATOM      9  C   UNL     1      -3.515   0.216  31.555  0.00  0.00    +0.030 C 
ATOM     10  C   UNL     1      -4.580  -0.805  31.957  0.00  0.00    -0.030 C 
ATOM     11  C   UNL     1      -5.927  -0.281  32.429  0.00  0.00    -0.026 C 
ENDBRANCH   8  11
ENDBRANCH   1   8
BRANCH   4  12
ATOM     12  O   UNL     1      -8.094  -6.175  30.485  0.00  0.00    -0.449 OA
BRANCH  12  13
ATOM     13  C   UNL     1      -7.487  -6.478  29.264  0.00  0.00    +0.168 A 
ATOM     14  C   UNL     1      -7.517  -7.782  28.787  0.00  0.00    +0.177 A 
ATOM     15  C   UNL     1      -6.886  -8.120  27.589  0.00  0.00    +0.027 A 
ATOM     16  C   UNL     1      -6.240  -7.128  26.844  0.00  0.00    +0.002 A 
ATOM     17  C   UNL     1      -6.214  -5.811  27.307  0.00  0.00    +0.003 A 
ATOM     18  C   UNL     1      -6.836  -5.490  28.517  0.00  0.00    +0.039 A 
BRANCH  14  19
ATOM     19  N   UNL     1      -8.199  -8.788  29.557  0.00  0.00    +0.061 N 
ATOM     20  O   UNL     1      -9.307  -8.596  29.882  0.00  0.00    -0.126 OA
ATOM     21  O   UNL     1      -7.632  -9.775  29.853  0.00  0.00    -0.126 OA
ENDBRANCH  14  19
ENDBRANCH  12  13
ENDBRANCH   4  12
TORSDOF 5
