/web/media/ligands/4OXY_ligand.pdb
 OpenBabel04242009293D

 21 22  0  0  0  0  0  0  0  0999 V2000
   -3.5150    0.2160   31.5550 C   0  0  0  0  0  0  0  0  0  0  0  0
   -7.4870   -6.4780   29.2640 C   0  0  0  0  0  0  0  0  0  0  0  0
   -6.8860   -8.1200   27.5890 C   0  0  0  0  0  0  0  0  0  0  0  0
   -6.8360   -5.4900   28.5170 C   0  0  0  0  0  0  0  0  0  0  0  0
   -6.6110   -3.7130   32.7830 C   0  0  0  0  0  0  0  0  0  0  0  0
   -6.8870   -4.9300   32.1600 C   0  0  0  0  0  0  0  0  0  0  0  0
   -7.8100   -4.9600   31.1170 C   0  0  0  0  0  0  0  0  0  0  0  0
   -8.4460   -3.7770   30.7160 C   0  0  0  0  0  0  0  0  0  0  0  0
   -8.1790   -2.5530   31.3520 C   0  0  0  0  0  0  0  0  0  0  0  0
   -7.2450   -2.5320   32.3930 C   0  0  0  0  0  0  0  0  0  0  0  0
   -6.8940   -1.2370   33.1180 C   0  0  0  0  0  0  0  0  0  0  0  0
   -5.9270   -0.2810   32.4290 C   0  0  0  0  0  0  0  0  0  0  0  0
   -4.5800   -0.8050   31.9570 C   0  0  0  0  0  0  0  0  0  0  0  0
   -9.3300   -3.8370   29.6450 O   0  0  0  0  0  0  0  0  0  0  0  0
   -8.0940   -6.1750   30.4850 O   0  0  0  0  0  0  0  0  0  0  0  0
   -7.5170   -7.7820   28.7870 C   0  0  0  0  0  0  0  0  0  0  0  0
   -6.2400   -7.1280   26.8440 C   0  0  0  0  0  0  0  0  0  0  0  0
   -6.2140   -5.8110   27.3070 C   0  0  0  0  0  0  0  0  0  0  0  0
   -8.1990   -8.7880   29.5570 N   0  0  0  0  0  0  0  0  0  0  0  0
   -7.6320   -9.7750   29.8530 O   0  0  0  0  0  0  0  0  0  0  0  0
   -9.3070   -8.5960   29.8820 O   0  0  0  0  0  0  0  0  0  0  0  0
  1 13  1  0  0  0  0
  2 15  1  0  0  0  0
  3 16  2  0  0  0  0
  4  2  2  0  0  0  0
  6  5  2  0  0  0  0
  7  6  1  0  0  0  0
  8  7  2  0  0  0  0
  8  9  1  0  0  0  0
  9 10  2  0  0  0  0
 10  5  1  0  0  0  0
 10 11  1  0  0  0  0
 12 11  1  0  0  0  0
 13 12  2  0  0  0  0
 14  8  1  0  0  0  0
 15  7  1  0  0  0  0
 16  2  1  0  0  0  0
 16 19  1  0  0  0  0
 17 18  2  0  0  0  0
 17  3  1  0  0  0  0
 18  4  1  0  0  0  0
 19 20  2  0  0  0  0
 19 21  2  0  0  0  0
M  END
>  <REMARK>
 610     1TN A  302                                                       
 610     1TN B  302                                                       
 610     1TN C  302                                                       
 610     1TN D  302                                                       
 800 SITE_DESCRIPTION: binding site for residue 1TN A 302                 
 800 SITE_DESCRIPTION: binding site for residue 1TN B 302                 
 800 SITE_DESCRIPTION: binding site for residue 1TN C 302                 
 800 SITE_DESCRIPTION: binding site for residue 1TN D 302                 

>  <HET>
 1TN  A 302      21                                                       
 1TN  B 302      22                                                       
 1TN  C 302      42                                                       
 1TN  D 302      21                                                       

>  <HETNAM>
     1TN 5-HEXYL-2-(2-NITROPHENOXY)PHENOL                                 

>  <FORMUL>
   6  1TN    4(C18 H21 N O4)                                              

>  <SITE>
   6 AC1 31 ILE A 194  THR A 196  ALA A 198  1TN A 302                    
   7 AC3 32 MET B 199  1TN B 302  HOH B 401  HOH B 411                    
   7 AC5 31 MET C 199  1TN C 302  HOH C 407  HOH C 414                    
   7 AC7 31 MET D 199  1TN D 302  HOH D 416  HOH D 417                    

>  <ANISOU>
 7787  C10 1TN A 302     4275   4847   4700    389   -275      6       C  
 7787  C10 1TN A 302     4275   4847   4700    389   -275      6       C  
 7788  C15 1TN A 302     2315   2201   2315    446   -111    -81       C  
 7788  C15 1TN A 302     2315   2201   2315    446   -111    -81       C  
 7789  C17 1TN A 302     3399   3160   3381    516    -42   -135       C  
 7789  C17 1TN A 302     3399   3160   3381    516    -42   -135       C  
 7790  C20 1TN A 302     3083   3086   3148    451    -96    -95       C  
 7790  C20 1TN A 302     3083   3086   3148    451    -96    -95       C  
 7791  C01 1TN A 302     2270   2409   2357    404   -249     14       C  
 7791  C01 1TN A 302     2270   2409   2357    404   -249     14       C  
 7792  C02 1TN A 302     2421   2458   2474    427   -216      4       C  
 7792  C02 1TN A 302     2421   2458   2474    427   -216      4       C  
 7793  C03 1TN A 302     3311   3305   3322    394   -178    -34       C  
 7793  C03 1TN A 302     3311   3305   3322    394   -178    -34       C  
 7794  C04 1TN A 302     3428   3486   3439    345   -173    -55       C  
 7794  C04 1TN A 302     3428   3486   3439    345   -173    -55       C  
 7795  C05 1TN A 302     2412   2564   2461    327   -203    -43       C  
 7795  C05 1TN A 302     2412   2564   2461    327   -203    -43       C  
 7796  C06 1TN A 302     2858   3049   2943    355   -240    -12       C  
 7796  C06 1TN A 302     2858   3049   2943    355   -240    -12       C  
 7797  C07 1TN A 302     2981   3263   3100    332   -278     -4       C  
 7797  C07 1TN A 302     2981   3263   3100    332   -278     -4       C  
 7798  C08 1TN A 302     3597   3989   3817    337   -277    -11       C  
 7798  C08 1TN A 302     3597   3989   3817    337   -277    -11       C  
 7799  C09 1TN A 302     3301   3745   3613    391   -269      3       C  
 7799  C09 1TN A 302     3301   3745   3613    391   -269      3       C  
 7800  O13 1TN A 302     3571   3592   3543    315   -143    -89       O  
 7800  O13 1TN A 302     3571   3592   3543    315   -143    -89       O  
 7801  O14 1TN A 302     3371   3254   3340    411   -149    -51       O  
 7801  O14 1TN A 302     3371   3254   3340    411   -149    -51       O  
 7802  C16 1TN A 302     3535   3299   3496    476    -86    -98       C  
 7802  C16 1TN A 302     3535   3299   3496    476    -86    -98       C  
 7803  C18 1TN A 302     3537   3424   3579    521    -22   -148       C  
 7803  C18 1TN A 302     3537   3424   3579    521    -22   -148       C  
 7804  C19 1TN A 302     3291   3298   3378    486    -51   -125       C  
 7804  C19 1TN A 302     3291   3298   3378    486    -51   -125       C  
 7805  N21 1TN A 302     4872   4509   4768    465   -102    -79       N  
 7805  N21 1TN A 302     4872   4509   4768    465   -102    -79       N  
 7806  O22 1TN A 302     5309   4871   5213    515   -103    -62       O  
 7806  O22 1TN A 302     5309   4871   5213    515   -103    -62       O  
 7807  O23 1TN A 302     4362   3974   4203    405   -112    -77       O  
 7807  O23 1TN A 302     4362   3974   4203    405   -112    -77       O  
 7852  C10 1TN B 302     5735   5493   6376   -332   -657   -425       C  
 7853  C15 1TN B 302     4568   3590   5454   -248   -620   -400       C  
 7854  C17 1TN B 302     3755   2495   4606   -195   -616   -539       C  
 7855  C20 1TN B 302     4419   3509   5219   -231   -608   -469       C  
 7856  C01 1TN B 302     3042   2527   3966   -399   -651   -257       C  
 7857  C02 1TN B 302     4405   3730   5342   -384   -655   -277       C  
 7858  C03 1TN B 302     3837   3120   4755   -308   -621   -281       C  
 7859  C04 1TN B 302     2760   2160   3645   -255   -585   -265       C  
 7860  C05 1TN B 302     3059   2603   3921   -273   -581   -247       C  
 7861  C06 1TN B 302     3254   2841   4137   -341   -612   -242       C  
 7862  C07 1TN B 302     3610   3353   4476   -348   -607   -228       C  
 7863  C08 1TN B 302     4432   4181   5241   -364   -638   -301       C  
 7864  C09 1TN B 302     5118   4915   5835   -314   -620   -347       C  
 7865  C11 1TN B 302     6181   6023   6738   -304   -651   -448       C  
 7866  O13 1TN B 302     2679   2050   3558   -183   -554   -269       O  
 7867  O14 1TN B 302     3855   2979   4797   -284   -624   -300       O  
 7868  C16 1TN B 302     4700   3546   5613   -231   -626   -431       C  
 7869  C18 1TN B 302     4151   2965   4905   -180   -601   -609       C  
 7870  C19 1TN B 302     4022   3010   4752   -199   -599   -570       C  
 7871  N21 1TN B 302     4372   3140   5372   -247   -640   -351       N  
 7872  O22 1TN B 302     5174   3793   6199   -277   -666   -370       O  
 7873  O23 1TN B 302     4033   2883   5071   -232   -627   -265       O  
 7918  C10B1TN C 302     5610   6177   4929   -430   -874     24       C  
 7919  C10C1TN C 302     5456   6029   4792   -435   -881     21       C  
 7920  C15B1TN C 302     5746   5947   4099   -382   -484   -135       C  
 7921  C15C1TN C 302     5731   5945   4098   -381   -487   -121       C  
 7922  C17B1TN C 302     5674   5740   3892   -353   -360   -276       C  
 7923  C17C1TN C 302     5570   5652   3788   -351   -358   -258       C  
 7924  C20B1TN C 302     5522   5715   3965   -401   -540   -167       C  
 7925  C20C1TN C 302     5524   5723   3970   -400   -541   -158       C  
 7926  C01B1TN C 302     5258   5671   3900   -432   -773     87       C  
 7927  C01C1TN C 302     5328   5750   3995   -431   -781     92       C  
 7928  C02B1TN C 302     5124   5471   3599   -432   -697     36       C  
 7929  C02C1TN C 302     5148   5505   3647   -431   -705     46       C  
 7930  C03B1TN C 302     5086   5410   3617   -391   -597      5       C  
 7931  C03C1TN C 302     5007   5341   3562   -390   -605     15       C  
 7932  C04B1TN C 302     4644   5005   3381   -356   -578     22       C  
 7933  C04C1TN C 302     4586   4956   3347   -355   -586     29       C  
 7934  C05B1TN C 302     4488   4907   3377   -357   -649     67       C  
 7935  C05C1TN C 302     4387   4813   3300   -357   -657     70       C  
 7936  C06B1TN C 302     5018   5466   3867   -393   -744    101       C  
 7937  C06C1TN C 302     5128   5583   4002   -392   -752    102       C  
 7938  C07B1TN C 302     5442   5962   4473   -387   -819    149       C  
 7939  C07C1TN C 302     5611   6139   4667   -388   -826    146       C  
 7940  C08B1TN C 302     5596   6137   4780   -383   -820    104       C  
 7941  C08C1TN C 302     5719   6263   4920   -385   -824     98       C  
 7942  C09B1TN C 302     5939   6480   5094   -431   -878     58       C  
 7943  C09C1TN C 302     6006   6542   5168   -434   -875     46       C  
 7944  O13B1TN C 302     4458   4800   3247   -318   -488     -8       O  
 7945  O13C1TN C 302     4471   4821   3281   -318   -496     -1       O  
 7946  O14B1TN C 302     5650   5916   4030   -385   -517    -46       O  
 7947  O14C1TN C 302     5377   5656   3783   -383   -525    -31       O  
 7948  C16B1TN C 302     5717   5861   3957   -360   -392   -190       C  
 7949  C16C1TN C 302     5787   5948   4040   -358   -394   -170       C  
 7950  C18B1TN C 302     5804   5850   4104   -375   -420   -305       C  
 7951  C18C1TN C 302     5792   5847   4081   -373   -415   -294       C  
 7952  C19B1TN C 302     5549   5664   3964   -401   -508   -250       C  
 7953  C19C1TN C 302     5547   5666   3951   -400   -505   -243       C  
 7954  N21B1TN C 302     5940   6103   4092   -343   -325   -156       N  
 7955  N21C1TN C 302     5915   6103   4098   -342   -331   -128       N  
 7956  O22B1TN C 302     6351   6560   4618   -310   -275   -118       O  
 7957  O22C1TN C 302     5431   5649   3544   -365   -366    -68       O  
 7958  O23B1TN C 302     5962   6091   3924   -364   -314   -174       O  
 7959  O23C1TN C 302     6509   6697   4728   -304   -245   -144       O  
 8004  C10 1TN D 302     5239   6878   7710    472   -252      8       C  
 8005  C15 1TN D 302     3828   5177   6036    681    344   -408       C  
 8006  C17 1TN D 302     3740   4881   5918    801    397   -507       C  
 8007  C20 1TN D 302     4052   5399   6365    703    251   -353       C  
 8008  C01 1TN D 302     2298   4016   4712    492    168   -210       C  
 8009  C02 1TN D 302     2834   4506   5229    549    262   -273       C  
 8010  C03 1TN D 302     2898   4399   5100    554    277   -319       C  
 8011  C04 1TN D 302     2889   4278   4936    505    201   -297       C  
 8012  C05 1TN D 302     2923   4357   4988    454    117   -236       C  
 8013  C06 1TN D 302     2979   4572   5219    446     98   -195       C  
 8014  C07 1TN D 302     4059   5691   6306    389     -1   -133       C  
 8015  C08 1TN D 302     3930   5615   6332    432    -79    -85       C  
 8016  C09 1TN D 302     4525   6115   6842    421   -177    -45       C  
 8017  O13 1TN D 302     3007   4240   4882    508    210   -340       O  
 8018  O14 1TN D 302     3413   4859   5584    609    364   -387       O  
 8019  C16 1TN D 302     3870   5120   6007    731    418   -485       C  
 8020  C18 1TN D 302     3964   5100   6254    822    304   -447       C  
 8021  C19 1TN D 302     4015   5258   6370    773    230   -367       C  
 8022  N21 1TN D 302     4462   5708   6469    707    512   -540       N  
 8023  O22 1TN D 302     4265   5637   6347    706    583   -543       O  
 8024  O23 1TN D 302     5771   6893   7588    678    512   -574       O  

$$$$
