@<TRIPOS>MOLECULE
/web/media/ligands/5COQ_ligand.pdb
 21 22 0 0 0
SMALL
GASTEIGER

@<TRIPOS>ATOM
      1 O          38.7910   -4.0650   19.0470 O.3     1  UNL1       -0.2833
      2 C          39.1610   -3.4920   17.8190 C.ar    1  UNL1        0.2295
      3 C          38.2420   -2.7720   17.0400 C.ar    1  UNL1        0.0410
      4 C          38.6370   -2.2390   15.7980 C.ar    1  UNL1       -0.0188
      5 C          37.6210   -1.4900   14.9440 C.3     1  UNL1        0.0265
      6 C          36.5850   -2.4300   14.3260 C.3     1  UNL1        0.0047
      7 C          35.9980   -2.0880   12.9760 C.3     1  UNL1        0.0003
      8 C          35.6760   -3.2910   12.0960 C.3     1  UNL1        0.0000
      9 C          34.4300   -4.1000   12.4570 C.3     1  UNL1        0.0000
     10 C          33.6220   -4.6390   11.2870 C.3     1  UNL1        0.0000
     11 C          39.9420   -2.4350   15.3160 C.ar    1  UNL1       -0.0009
     12 C          40.8580   -3.1530   16.1000 C.ar    1  UNL1        0.0405
     13 C          40.4600   -3.6920   17.3360 C.ar    1  UNL1        0.1839
     14 O          41.3880   -4.3790   18.1140 O.3     1  UNL1       -0.4506
     15 C          41.3120   -5.7730   18.0320 C.ar    1  UNL1        0.1414
     16 C          40.3970   -6.4460   17.2130 C.ar    1  UNL1        0.0372
     17 C          40.3830   -7.8470   17.1990 C.ar    1  UNL1        0.0031
     18 C          41.2840   -8.5690   17.9880 C.ar    1  UNL1       -0.0001
     19 C          42.1970   -7.8970   18.8110 C.ar    1  UNL1       -0.0012
     20 C          42.2050   -6.4960   18.8240 C.ar    1  UNL1        0.0127
     21 C          43.1550   -5.7210   19.7300 C.3     1  UNL1        0.0342
@<TRIPOS>BOND
     1     2     1    1
     2     3     2   ar
     3     4     3   ar
     4     5     4    1
     5     6     5    1
     6     7     6    1
     7     8     9    1
     8     8     7    1
     9    10     9    1
    10    11     4   ar
    11    11    12   ar
    12    12    13   ar
    13    13     2   ar
    14    13    14    1
    15    15    14    1
    16    15    20   ar
    17    16    15   ar
    18    17    16   ar
    19    17    18   ar
    20    18    19   ar
    21    19    20   ar
    22    20    21    1
