REMARK  Name = /web/media/ligands/5COQ_ligand.pdb
REMARK  7 active torsions:
REMARK  status: ('A' for Active; 'I' for Inactive)
REMARK    1  A    between atoms: C_4  and  C_5
REMARK    2  A    between atoms: C_5  and  C_6
REMARK    3  A    between atoms: C_6  and  C_7
REMARK    4  A    between atoms: C_7  and  C_8
REMARK    5  A    between atoms: C_8  and  C_9
REMARK    6  A    between atoms: C_13  and  O_14
REMARK    7  A    between atoms: O_14  and  C_15
REMARK                            x       y       z     vdW  Elec       q    Type
REMARK                         _______ _______ _______ _____ _____    ______ ____
ROOT
ATOM      1  O   UNL     1      38.791  -4.065  19.047  0.00  0.00    -0.283 OA
ATOM      2  C   UNL     1      39.161  -3.492  17.819  0.00  0.00    +0.230 A 
ATOM      3  C   UNL     1      40.460  -3.692  17.336  0.00  0.00    +0.184 A 
ATOM      4  C   UNL     1      40.858  -3.153  16.100  0.00  0.00    +0.040 A 
ATOM      5  C   UNL     1      39.942  -2.435  15.316  0.00  0.00    -0.001 A 
ATOM      6  C   UNL     1      38.637  -2.239  15.798  0.00  0.00    -0.019 A 
ATOM      7  C   UNL     1      38.242  -2.772  17.040  0.00  0.00    +0.041 A 
ENDROOT
BRANCH   6   8
ATOM      8  C   UNL     1      37.621  -1.490  14.944  0.00  0.00    +0.026 C 
BRANCH   8   9
ATOM      9  C   UNL     1      36.585  -2.430  14.326  0.00  0.00    +0.005 C 
BRANCH   9  10
ATOM     10  C   UNL     1      35.998  -2.088  12.976  0.00  0.00    +0.000 C 
BRANCH  10  11
ATOM     11  C   UNL     1      35.676  -3.291  12.096  0.00  0.00    +0.000 C 
BRANCH  11  12
ATOM     12  C   UNL     1      34.430  -4.100  12.457  0.00  0.00    +0.000 C 
ATOM     13  C   UNL     1      33.622  -4.639  11.287  0.00  0.00    +0.000 C 
ENDBRANCH  11  12
ENDBRANCH  10  11
ENDBRANCH   9  10
ENDBRANCH   8   9
ENDBRANCH   6   8
BRANCH   3  14
ATOM     14  O   UNL     1      41.388  -4.379  18.114  0.00  0.00    -0.451 OA
BRANCH  14  15
ATOM     15  C   UNL     1      41.312  -5.773  18.032  0.00  0.00    +0.141 A 
ATOM     16  C   UNL     1      40.397  -6.446  17.213  0.00  0.00    +0.037 A 
ATOM     17  C   UNL     1      40.383  -7.847  17.199  0.00  0.00    +0.003 A 
ATOM     18  C   UNL     1      41.284  -8.569  17.988  0.00  0.00    -0.000 A 
ATOM     19  C   UNL     1      42.197  -7.897  18.811  0.00  0.00    -0.001 A 
ATOM     20  C   UNL     1      42.205  -6.496  18.824  0.00  0.00    +0.013 A 
ATOM     21  C   UNL     1      43.155  -5.721  19.730  0.00  0.00    +0.034 C 
ENDBRANCH  14  15
ENDBRANCH   3  14
TORSDOF 7
