/web/media/ligands/5COQ_ligand.pdb
 OpenBabel04242009293D

 21 22  0  0  0  0  0  0  0  0999 V2000
   38.7910   -4.0650   19.0470 O   0  0  0  0  0  0  0  0  0  0  0  0
   39.1610   -3.4920   17.8190 C   0  0  0  0  0  0  0  0  0  0  0  0
   38.2420   -2.7720   17.0400 C   0  0  0  0  0  0  0  0  0  0  0  0
   38.6370   -2.2390   15.7980 C   0  0  0  0  0  0  0  0  0  0  0  0
   37.6210   -1.4900   14.9440 C   0  0  0  0  0  0  0  0  0  0  0  0
   36.5850   -2.4300   14.3260 C   0  0  0  0  0  0  0  0  0  0  0  0
   35.9980   -2.0880   12.9760 C   0  0  0  0  0  0  0  0  0  0  0  0
   35.6760   -3.2910   12.0960 C   0  0  0  0  0  0  0  0  0  0  0  0
   34.4300   -4.1000   12.4570 C   0  0  0  0  0  0  0  0  0  0  0  0
   33.6220   -4.6390   11.2870 C   0  0  0  0  0  0  0  0  0  0  0  0
   39.9420   -2.4350   15.3160 C   0  0  0  0  0  0  0  0  0  0  0  0
   40.8580   -3.1530   16.1000 C   0  0  0  0  0  0  0  0  0  0  0  0
   40.4600   -3.6920   17.3360 C   0  0  0  0  0  0  0  0  0  0  0  0
   41.3880   -4.3790   18.1140 O   0  0  0  0  0  0  0  0  0  0  0  0
   41.3120   -5.7730   18.0320 C   0  0  0  0  0  0  0  0  0  0  0  0
   40.3970   -6.4460   17.2130 C   0  0  0  0  0  0  0  0  0  0  0  0
   40.3830   -7.8470   17.1990 C   0  0  0  0  0  0  0  0  0  0  0  0
   41.2840   -8.5690   17.9880 C   0  0  0  0  0  0  0  0  0  0  0  0
   42.1970   -7.8970   18.8110 C   0  0  0  0  0  0  0  0  0  0  0  0
   42.2050   -6.4960   18.8240 C   0  0  0  0  0  0  0  0  0  0  0  0
   43.1550   -5.7210   19.7300 C   0  0  0  0  0  0  0  0  0  0  0  0
  2  1  1  0  0  0  0
  3  2  2  0  0  0  0
  4  3  1  0  0  0  0
  5  4  1  0  0  0  0
  6  5  1  0  0  0  0
  7  6  1  0  0  0  0
  8  9  1  0  0  0  0
  8  7  1  0  0  0  0
 10  9  1  0  0  0  0
 11  4  2  0  0  0  0
 11 12  1  0  0  0  0
 12 13  2  0  0  0  0
 13  2  1  0  0  0  0
 13 14  1  0  0  0  0
 15 14  1  0  0  0  0
 15 20  2  0  0  0  0
 16 15  1  0  0  0  0
 17 16  2  0  0  0  0
 17 18  1  0  0  0  0
 18 19  2  0  0  0  0
 19 20  1  0  0  0  0
 20 21  1  0  0  0  0
M  END
>  <REMARK>
 800 SITE_DESCRIPTION: binding site for residue TCU A 301                 
 800 SITE_DESCRIPTION: binding site for residue TCU B 301                 
 800 SITE_DESCRIPTION: binding site for residue TCU C 302                 
 800 SITE_DESCRIPTION: binding site for residue TCU D 301                 

>  <HET>
 TCU  A 301      21                                                       
 TCU  B 301      21                                                       
 TCU  C 302      21                                                       
 TCU  D 301      21                                                       

>  <HETNAM>
     TCU 5-HEXYL-2-(2-METHYLPHENOXY)PHENOL                                

>  <HETSYN>
     TCU 2-(O-TOLYLOXY)-5-HEXYLPHENOL                                     

>  <FORMUL>
   6  TCU    4(C19 H24 O2)                                                

>  <SITE>
   6 AC1 25 ALA A 198  TCU A 301  HOH A 426  HOH A 441                    
   6 AC3 28 ILE B 194  THR B 196  ALA B 198  TCU B 301                    
   6 AC5 29 ILE C 194  THR C 196  ALA C 198  TCU C 302                    
   6 AC8 26 THR D 196  ALA D 198  TCU D 301  HOH D 422                    

$$$$
