@<TRIPOS>MOLECULE
/web/media/ligands/5J2X_ligand.pdb
 44 36 0 0 0
SMALL
GASTEIGER

@<TRIPOS>ATOM
      1 C           1.5760   12.2310   27.4000 C.2     1  UNL1        0.2325
      2 C           1.3470   12.0060   27.2120 C.2     2  UNL2        0.0000
      3 C           2.8120   11.6940   27.0600 C.2     1  UNL1        0.0014
      4 C           2.5890   11.6620   26.7230 C.2     1  UNL1        0.0538
      5 C           2.8550   10.8410   25.9660 C.3     1  UNL1        0.2252
      6 C           2.6750   10.8240   25.6210 C.2     1  UNL1        0.2203
      7 C           1.7670    9.6080   24.0860 C.2     1  UNL1       -0.0049
      8 C           1.5600    9.4740   23.8210 C.2     3  UNL3        0.2315
      9 C           1.5400    7.7970   22.8270 C.3     3  UNL3        0.1725
     10 C           1.2190    7.6310   22.6250 C.3     3  UNL3        0.2105
     11 C           0.2210    7.7610   24.8820 C.3     4  UNL4        0.1444
     12 C           0.0770    7.6590   24.8110 C.3     5  UNL5        0.0353
     13 C          -1.0920    7.4810   24.4630 C.3     5  UNL5        0.1340
     14 C           0.6240    6.7360   25.6900 C.3     4  UNL4        0.1799
     15 C          -2.0010    6.8620   25.3110 C.3     5  UNL5        0.0326
     16 C          -0.1350    6.1470   26.7020 C.3     4  UNL4        0.0001
     17 C           0.6300    7.3640   26.1560 C.3     4  UNL4        0.0368
     18 C          -1.2500    8.0320   25.0180 C.3     5  UNL5        0.0353
     19 C           1.7000   10.5610   25.2060 C.2     1  UNL1        0.0476
     20 C           1.5210   10.4350   24.9330 C.2     1  UNL1       -0.0258
     21 C           0.4640   11.0710   25.6060 C.2     2  UNL2        0.0000
     22 C           0.2770   10.8190   25.4200 C.3     1  UNL1        0.0307
     23 C           0.4370   11.9340   26.6760 C.2     2  UNL2        0.0000
     24 C           0.2200   11.6370   26.5160 C.2     2  UNL2        0.0000
     25 O           1.4300   13.0360   28.4720 O.3     6  HOH6        0.0000
     26 O           1.2350   12.7660   28.3370 O.2     1  UNL1       -0.2834
     27 O           4.0480   10.3390   25.5800 O.3     1  UNL1       -0.1676
     28 O           3.8970   10.5380   25.1390 O.2     1  UNL1       -0.3299
     29 N           2.5300    9.7880   23.0460 N.pl3   3  UNL3       -0.0724
     30 N           2.2670    9.6010   22.7320 N.2     3  UNL3       -0.0347
     31 N           2.3830    8.6590   22.2360 N.2     3  UNL3       -0.0405
     32 N           2.0440    8.4560   21.9600 N.pl3   3  UNL3       -0.1204
     33 N           1.1440    8.3590   23.9900 N.2     3  UNL3       -0.1248
     34 N           0.9060    8.2260   23.7960 N.3     4  UNL4       -0.1284
     35 C          -1.5750    6.5020   26.5840 C.3     5  UNL5        0.0001
     36 C          -1.4500    6.5520   26.8970 C.3     4  UNL4        0.0001
     37 C          -0.2730    6.7520   27.0130 C.3     4  UNL4        0.0028
     38 C          -2.0140    7.5030   26.0580 C.3     5  UNL5        0.0027
     39 O           1.2110    6.7000   22.4030 O.3     3  UNL3       -0.1871
     40 O           0.8390    6.5430   22.2330 O.3     3  UNL3       -0.0346
     41 F          -1.5040    7.8230   23.2290 F       5  UNL5       -0.2400
     42 F           1.8760    6.2920   25.4430 F       4  UNL4       -0.2357
     43 BR         -1.1520   12.8350   27.0950 Br      2  UNL2        0.0000
     44 BR         -1.4460   12.3770   26.9090 Br      2  UNL2        0.0000
@<TRIPOS>BOND
     1     1    26    2
     2     4     3    2
     3     4     1    1
     4     5     4    1
     5     7    20    2
     6     8    33    2
     7    10     9    1
     8    11    14    1
     9    13    12    1
    10    13    18    1
    11    13    15    1
    12    14    42    1
    13    14    17    1
    14    15    38    1
    15    16    37    1
    16    17    37    1
    17    19     6    2
    18    20    22    1
    19    21    24    2
    20    23     2    2
    21    24    23    1
    22    27     5    1
    23    28    27    1
    24    28     6    1
    25    29     8    1
    26    30    29    1
    27    31    30    2
    28    32    31    1
    29    32     9    1
    30    34    11    1
    31    36    37    1
    32    38    35    1
    33    39    10    1
    34    40    39    1
    35    41    13    1
    36    44    43    1
