REMARK  Name = /web/media/ligands/5J2X_ligand.pdb
REMARK  16 active torsions:
REMARK  status: ('A' for Active; 'I' for Inactive)
REMARK    1  A    between atoms: C_1  and  C_4
REMARK    2  A    between atoms: C_4  and  C_5
REMARK    3  A    between atoms: C_5  and  O_27
REMARK    4  A    between atoms: C_6  and  O_28
REMARK    5  A    between atoms: C_9  and  C_10
REMARK    6  A    between atoms: C_9  and  N_32
REMARK    7  A    between atoms: C_10  and  O_39
REMARK    8  A    between atoms: C_11  and  C_14
REMARK    9  A    between atoms: C_13  and  C_15
REMARK   10  A    between atoms: C_14  and  C_17
REMARK   11  A    between atoms: C_15  and  C_38
REMARK   12  A    between atoms: C_17  and  C_37
REMARK   13  A    between atoms: C_23  and  C_24
REMARK   14  A    between atoms: O_27  and  O_28
REMARK   15  A    between atoms: N_29  and  N_30
REMARK   16  A    between atoms: N_31  and  N_32
REMARK                            x       y       z     vdW  Elec       q    Type
REMARK                         _______ _______ _______ _____ _____    ______ ____
ROOT
ATOM      1  C   UNL     1       2.855  10.841  25.966  0.00  0.00    +0.225 C 
ENDROOT
BRANCH   1   2
ATOM      2  C   UNL     1       2.589  11.662  26.723  0.00  0.00    +0.054 C 
ATOM      3  C   UNL     1       2.812  11.694  27.060  0.00  0.00    +0.001 C 
BRANCH   2   4
ATOM      4  C   UNL     1       1.576  12.231  27.400  0.00  0.00    +0.232 C 
ATOM      5  O   UNL     1       1.235  12.766  28.337  0.00  0.00    -0.283 OA
ENDBRANCH   2   4
ENDBRANCH   1   2
BRANCH   1   6
ATOM      6  O   UNL     1       4.048  10.339  25.580  0.00  0.00    -0.168 OA
BRANCH   6   7
ATOM      7  O   UNL     1       3.897  10.538  25.139  0.00  0.00    -0.330 OA
BRANCH   7   8
ATOM      8  C   UNL     1       2.675  10.824  25.621  0.00  0.00    +0.220 C 
ATOM      9  C   UNL     1       1.700  10.561  25.206  0.00  0.00    +0.048 C 
ENDBRANCH   7   8
ENDBRANCH   6   7
ENDBRANCH   1   6
TORSDOF 5
REMARK  Name = /web/media/ligands/5J2X_ligand.pdb
REMARK  16 active torsions:
REMARK  status: ('A' for Active; 'I' for Inactive)
REMARK    1  A    between atoms: C_1  and  C_4
REMARK    2  A    between atoms: C_4  and  C_5
REMARK    3  A    between atoms: C_5  and  O_27
REMARK    4  A    between atoms: C_6  and  O_28
REMARK    5  A    between atoms: C_9  and  C_10
REMARK    6  A    between atoms: C_9  and  N_32
REMARK    7  A    between atoms: C_10  and  O_39
REMARK    8  A    between atoms: C_11  and  C_14
REMARK    9  A    between atoms: C_13  and  C_15
REMARK   10  A    between atoms: C_14  and  C_17
REMARK   11  A    between atoms: C_15  and  C_38
REMARK   12  A    between atoms: C_17  and  C_37
REMARK   13  A    between atoms: C_23  and  C_24
REMARK   14  A    between atoms: O_27  and  O_28
REMARK   15  A    between atoms: N_29  and  N_30
REMARK   16  A    between atoms: N_31  and  N_32
REMARK                            x       y       z     vdW  Elec       q    Type
REMARK                         _______ _______ _______ _____ _____    ______ ____
ROOT
ATOM      1  C   UNL     1       1.347  12.006  27.212  0.00  0.00    +0.000 C 
ATOM      2  C   UNL     1       0.437  11.934  26.676  0.00  0.00    +0.000 C 
ENDROOT
BRANCH   2   3
ATOM      3  C   UNL     1       0.220  11.637  26.516  0.00  0.00    +0.000 C 
ATOM      4  C   UNL     1       0.464  11.071  25.606  0.00  0.00    +0.000 C 
ENDBRANCH   2   3
TORSDOF 1
REMARK  Name = /web/media/ligands/5J2X_ligand.pdb
REMARK  16 active torsions:
REMARK  status: ('A' for Active; 'I' for Inactive)
REMARK    1  A    between atoms: C_1  and  C_4
REMARK    2  A    between atoms: C_4  and  C_5
REMARK    3  A    between atoms: C_5  and  O_27
REMARK    4  A    between atoms: C_6  and  O_28
REMARK    5  A    between atoms: C_9  and  C_10
REMARK    6  A    between atoms: C_9  and  N_32
REMARK    7  A    between atoms: C_10  and  O_39
REMARK    8  A    between atoms: C_11  and  C_14
REMARK    9  A    between atoms: C_13  and  C_15
REMARK   10  A    between atoms: C_14  and  C_17
REMARK   11  A    between atoms: C_15  and  C_38
REMARK   12  A    between atoms: C_17  and  C_37
REMARK   13  A    between atoms: C_23  and  C_24
REMARK   14  A    between atoms: O_27  and  O_28
REMARK   15  A    between atoms: N_29  and  N_30
REMARK   16  A    between atoms: N_31  and  N_32
REMARK                            x       y       z     vdW  Elec       q    Type
REMARK                         _______ _______ _______ _____ _____    ______ ____
ROOT
ATOM      1  C   UNL     1       1.767   9.608  24.086  0.00  0.00    -0.005 C 
ATOM      2  C   UNL     1       1.521  10.435  24.933  0.00  0.00    -0.026 C 
ATOM      3  C   UNL     1       0.277  10.819  25.420  0.00  0.00    +0.031 C 
ENDROOT
TORSDOF 0
REMARK  Name = /web/media/ligands/5J2X_ligand.pdb
REMARK  16 active torsions:
REMARK  status: ('A' for Active; 'I' for Inactive)
REMARK    1  A    between atoms: C_1  and  C_4
REMARK    2  A    between atoms: C_4  and  C_5
REMARK    3  A    between atoms: C_5  and  O_27
REMARK    4  A    between atoms: C_6  and  O_28
REMARK    5  A    between atoms: C_9  and  C_10
REMARK    6  A    between atoms: C_9  and  N_32
REMARK    7  A    between atoms: C_10  and  O_39
REMARK    8  A    between atoms: C_11  and  C_14
REMARK    9  A    between atoms: C_13  and  C_15
REMARK   10  A    between atoms: C_14  and  C_17
REMARK   11  A    between atoms: C_15  and  C_38
REMARK   12  A    between atoms: C_17  and  C_37
REMARK   13  A    between atoms: C_23  and  C_24
REMARK   14  A    between atoms: O_27  and  O_28
REMARK   15  A    between atoms: N_29  and  N_30
REMARK   16  A    between atoms: N_31  and  N_32
REMARK                            x       y       z     vdW  Elec       q    Type
REMARK                         _______ _______ _______ _____ _____    ______ ____
ROOT
ATOM      1  N   UNL     1       2.267   9.601  22.732  0.00  0.00    -0.035 NA
ATOM      2  N   UNL     1       2.383   8.659  22.236  0.00  0.00    -0.041 NA
ENDROOT
BRANCH   1   4
ATOM      3  C   UNL     1       1.560   9.474  23.821  0.00  0.00    +0.231 C 
ATOM      4  N   UNL     1       2.530   9.788  23.046  0.00  0.00    -0.072 NA
ATOM      5  N   UNL     1       1.144   8.359  23.990  0.00  0.00    -0.125 NA
ENDBRANCH   1   4
BRANCH   2   6
ATOM      6  N   UNL     1       2.044   8.456  21.960  0.00  0.00    -0.120 NA
BRANCH   6   7
ATOM      7  C   UNL     1       1.540   7.797  22.827  0.00  0.00    +0.172 C 
BRANCH   7   8
ATOM      8  C   UNL     1       1.219   7.631  22.625  0.00  0.00    +0.210 C 
BRANCH   8   9
ATOM      9  O   UNL     1       1.211   6.700  22.403  0.00  0.00    -0.187 OA
ATOM     10  O   UNL     1       0.839   6.543  22.233  0.00  0.00    -0.035 OA
ENDBRANCH   8   9
ENDBRANCH   7   8
ENDBRANCH   6   7
ENDBRANCH   2   6
TORSDOF 5
REMARK  Name = /web/media/ligands/5J2X_ligand.pdb
REMARK  16 active torsions:
REMARK  status: ('A' for Active; 'I' for Inactive)
REMARK    1  A    between atoms: C_1  and  C_4
REMARK    2  A    between atoms: C_4  and  C_5
REMARK    3  A    between atoms: C_5  and  O_27
REMARK    4  A    between atoms: C_6  and  O_28
REMARK    5  A    between atoms: C_9  and  C_10
REMARK    6  A    between atoms: C_9  and  N_32
REMARK    7  A    between atoms: C_10  and  O_39
REMARK    8  A    between atoms: C_11  and  C_14
REMARK    9  A    between atoms: C_13  and  C_15
REMARK   10  A    between atoms: C_14  and  C_17
REMARK   11  A    between atoms: C_15  and  C_38
REMARK   12  A    between atoms: C_17  and  C_37
REMARK   13  A    between atoms: C_23  and  C_24
REMARK   14  A    between atoms: O_27  and  O_28
REMARK   15  A    between atoms: N_29  and  N_30
REMARK   16  A    between atoms: N_31  and  N_32
REMARK                            x       y       z     vdW  Elec       q    Type
REMARK                         _______ _______ _______ _____ _____    ______ ____
ROOT
ATOM      1  C   UNL     1       0.624   6.736  25.690  0.00  0.00    +0.180 C 
ATOM      2  F   UNL     1       1.876   6.292  25.443  0.00  0.00    -0.236 F 
ENDROOT
BRANCH   1   3
ATOM      3  C   UNL     1       0.221   7.761  24.882  0.00  0.00    +0.144 C 
ATOM      4  N   UNL     1       0.906   8.226  23.796  0.00  0.00    -0.128 NA
ENDBRANCH   1   3
BRANCH   1   5
ATOM      5  C   UNL     1       0.630   7.364  26.156  0.00  0.00    +0.037 C 
BRANCH   5   6
ATOM      6  C   UNL     1      -0.273   6.752  27.013  0.00  0.00    +0.003 C 
ATOM      7  C   UNL     1      -1.450   6.552  26.897  0.00  0.00    +0.000 C 
ATOM      8  C   UNL     1      -0.135   6.147  26.702  0.00  0.00    +0.000 C 
ENDBRANCH   5   6
ENDBRANCH   1   5
TORSDOF 3
REMARK  Name = /web/media/ligands/5J2X_ligand.pdb
REMARK  16 active torsions:
REMARK  status: ('A' for Active; 'I' for Inactive)
REMARK    1  A    between atoms: C_1  and  C_4
REMARK    2  A    between atoms: C_4  and  C_5
REMARK    3  A    between atoms: C_5  and  O_27
REMARK    4  A    between atoms: C_6  and  O_28
REMARK    5  A    between atoms: C_9  and  C_10
REMARK    6  A    between atoms: C_9  and  N_32
REMARK    7  A    between atoms: C_10  and  O_39
REMARK    8  A    between atoms: C_11  and  C_14
REMARK    9  A    between atoms: C_13  and  C_15
REMARK   10  A    between atoms: C_14  and  C_17
REMARK   11  A    between atoms: C_15  and  C_38
REMARK   12  A    between atoms: C_17  and  C_37
REMARK   13  A    between atoms: C_23  and  C_24
REMARK   14  A    between atoms: O_27  and  O_28
REMARK   15  A    between atoms: N_29  and  N_30
REMARK   16  A    between atoms: N_31  and  N_32
REMARK                            x       y       z     vdW  Elec       q    Type
REMARK                         _______ _______ _______ _____ _____    ______ ____
ROOT
ATOM      1  C   UNL     1       0.077   7.659  24.811  0.00  0.00    +0.035 C 
ATOM      2  C   UNL     1      -1.092   7.481  24.463  0.00  0.00    +0.134 C 
ATOM      3  F   UNL     1      -1.504   7.823  23.229  0.00  0.00    -0.240 F 
ATOM      4  C   UNL     1      -1.250   8.032  25.018  0.00  0.00    +0.035 C 
ENDROOT
BRANCH   2   5
ATOM      5  C   UNL     1      -2.001   6.862  25.311  0.00  0.00    +0.033 C 
BRANCH   5   6
ATOM      6  C   UNL     1      -2.014   7.503  26.058  0.00  0.00    +0.003 C 
ATOM      7  C   UNL     1      -1.575   6.502  26.584  0.00  0.00    +0.000 C 
ENDBRANCH   5   6
ENDBRANCH   2   5
TORSDOF 2
REMARK  Name = /web/media/ligands/5J2X_ligand.pdb
REMARK  16 active torsions:
REMARK  status: ('A' for Active; 'I' for Inactive)
REMARK    1  A    between atoms: C_1  and  C_4
REMARK    2  A    between atoms: C_4  and  C_5
REMARK    3  A    between atoms: C_5  and  O_27
REMARK    4  A    between atoms: C_6  and  O_28
REMARK    5  A    between atoms: C_9  and  C_10
REMARK    6  A    between atoms: C_9  and  N_32
REMARK    7  A    between atoms: C_10  and  O_39
REMARK    8  A    between atoms: C_11  and  C_14
REMARK    9  A    between atoms: C_13  and  C_15
REMARK   10  A    between atoms: C_14  and  C_17
REMARK   11  A    between atoms: C_15  and  C_38
REMARK   12  A    between atoms: C_17  and  C_37
REMARK   13  A    between atoms: C_23  and  C_24
REMARK   14  A    between atoms: O_27  and  O_28
REMARK   15  A    between atoms: N_29  and  N_30
REMARK   16  A    between atoms: N_31  and  N_32
REMARK                            x       y       z     vdW  Elec       q    Type
REMARK                         _______ _______ _______ _____ _____    ______ ____
ROOT
ATOM      1  O   HOH     1       1.430  13.036  28.472  0.00  0.00    +0.000 OA
ENDROOT
TORSDOF 0
REMARK  Name = /web/media/ligands/5J2X_ligand.pdb
REMARK  16 active torsions:
REMARK  status: ('A' for Active; 'I' for Inactive)
REMARK    1  A    between atoms: C_1  and  C_4
REMARK    2  A    between atoms: C_4  and  C_5
REMARK    3  A    between atoms: C_5  and  O_27
REMARK    4  A    between atoms: C_6  and  O_28
REMARK    5  A    between atoms: C_9  and  C_10
REMARK    6  A    between atoms: C_9  and  N_32
REMARK    7  A    between atoms: C_10  and  O_39
REMARK    8  A    between atoms: C_11  and  C_14
REMARK    9  A    between atoms: C_13  and  C_15
REMARK   10  A    between atoms: C_14  and  C_17
REMARK   11  A    between atoms: C_15  and  C_38
REMARK   12  A    between atoms: C_17  and  C_37
REMARK   13  A    between atoms: C_23  and  C_24
REMARK   14  A    between atoms: O_27  and  O_28
REMARK   15  A    between atoms: N_29  and  N_30
REMARK   16  A    between atoms: N_31  and  N_32
REMARK                            x       y       z     vdW  Elec       q    Type
REMARK                         _______ _______ _______ _____ _____    ______ ____
ROOT
ATOM      1 BR   UNL     1      -1.152  12.835  27.095  0.00  0.00    +0.000 Br
ATOM      2 BR   UNL     1      -1.446  12.377  26.909  0.00  0.00    +0.000 Br
ENDROOT
TORSDOF 0
