@<TRIPOS>MOLECULE
/web/media/ligands/5J64_ligand.pdb
 21 23 0 0 0
SMALL
GASTEIGER

@<TRIPOS>ATOM
      1 C          -1.5020   11.8960   22.6250 C.ar    1  UNL1        0.1989
      2 C          -2.7760   11.5690   23.1120 C.ar    1  UNL1        0.0841
      3 C          -2.8820   10.7870   24.2410 C.ar    1  UNL1        0.2018
      4 C          -1.8020    9.4500   26.0460 C.ar    1  UNL1        0.1759
      5 C          -1.5450    7.6380   27.3300 C.ar    1  UNL1        0.3730
      6 C          -0.2950    7.5730   25.2080 C.ar    1  UNL1        0.0971
      7 C           1.0200    7.4080   25.5890 C.ar    1  UNL1        0.1563
      8 C           1.9510    6.8630   24.7070 C.ar    1  UNL1        0.0311
      9 C          -0.7190    7.1920   23.9420 C.ar    1  UNL1        0.0200
     10 C          -1.7370   10.3590   24.9110 C.ar    1  UNL1        0.0754
     11 C          -0.4680   10.6830   24.4140 C.ar    1  UNL1        0.0095
     12 C          -0.3610   11.4700   23.2840 C.ar    1  UNL1        0.0423
     13 O          -1.3740   12.6040   21.4730 O.3     1  UNL1       -0.2865
     14 O          -4.1130   10.4730   24.7470 O.3     1  UNL1       -0.2864
     15 N          -2.5640    9.6300   27.0970 N.ar    1  UNL1       -0.1254
     16 N          -2.3710    8.5030   27.9270 N.ar    1  UNL1       -0.0879
     17 N          -1.1610    8.1970   26.1510 N.ar    1  UNL1       -0.2385
     18 C           1.5330    6.4620   23.4330 C.ar    1  UNL1        0.0024
     19 C           0.2030    6.6220   23.0770 C.ar    1  UNL1        0.0016
     20 O          -1.1910    6.5610   27.7820 O.2     1  UNL1       -0.2424
     21 F           1.3790    7.7530   26.8410 F       1  UNL1       -0.2026
@<TRIPOS>BOND
     1     1     2   ar
     2     1    12   ar
     3     2     3   ar
     4     3    14    1
     5     3    10   ar
     6     4    17   ar
     7     4    15   ar
     8     5    20    2
     9     5    16   ar
    10     6     7   ar
    11     6    17    1
    12     7    21    1
    13     8     7   ar
    14     9     6   ar
    15    10     4    1
    16    11    10   ar
    17    12    11   ar
    18    13     1    1
    19    15    16   ar
    20    17     5   ar
    21    18     8   ar
    22    19    18   ar
    23    19     9   ar
