REMARK  Name = /web/media/ligands/5J86_ligand.pdb
REMARK  5 active torsions:
REMARK  status: ('A' for Active; 'I' for Inactive)
REMARK    1  A    between atoms: C_4  and  C_10
REMARK    2  A    between atoms: C_5  and  C_16
REMARK    3  A    between atoms: C_7  and  N_19
REMARK    4  A    between atoms: C_11  and  N_26
REMARK    5  A    between atoms: C_11  and  C_28
REMARK                            x       y       z     vdW  Elec       q    Type
REMARK                         _______ _______ _______ _____ _____    ______ ____
ROOT
ATOM      1  C   UNL     1     -32.572 -10.912  25.406  0.00  0.00    +0.076 A 
ATOM      2  C   UNL     1     -33.823 -11.236  24.890  0.00  0.00    +0.014 A 
ATOM      3  C   UNL     1     -33.943 -11.934  23.686  0.00  0.00    +0.093 A 
ATOM      4  C   UNL     1     -32.782 -12.365  23.014  0.00  0.00    +0.203 A 
ATOM      5  O   UNL     1     -32.897 -13.035  21.849  0.00  0.00    -0.286 OA
ATOM      6  C   UNL     1     -31.512 -12.045  23.522  0.00  0.00    +0.084 A 
ATOM      7  C   UNL     1     -31.415 -11.317  24.711  0.00  0.00    +0.202 A 
ATOM      8  O   UNL     1     -30.202 -11.024  25.231  0.00  0.00    -0.286 OA
ENDROOT
BRANCH   1  14
ATOM      9  N   UNL     1     -33.172  -8.838  26.756  0.00  0.00    -0.241 N 
ATOM     10  C   UNL     1     -32.881  -8.356  27.979  0.00  0.00    +0.373 A 
ATOM     11  N   UNL     1     -32.055  -9.230  28.586  0.00  0.00    -0.088 NA
ATOM     12  N   UNL     1     -31.817 -10.285  27.708  0.00  0.00    -0.125 NA
ATOM     13  O   UNL     1     -33.301  -7.314  28.445  0.00  0.00    -0.242 OA
ATOM     14  C   UNL     1     -32.503 -10.053  26.617  0.00  0.00    +0.176 A 
BRANCH   9  21
ATOM     15  C   UNL     1     -33.316  -7.523  24.727  0.00  0.00    +0.017 A 
ATOM     16  C   UNL     1     -34.043  -6.889  23.722  0.00  0.00    +0.001 A 
ATOM     17  C   UNL     1     -35.439  -6.892  23.763  0.00  0.00    -0.000 A 
ATOM     18  C   UNL     1     -36.109  -7.541  24.799  0.00  0.00    -0.003 A 
ATOM     19  C   UNL     1     -35.379  -8.176  25.812  0.00  0.00    -0.006 A 
ATOM     20  C   UNL     1     -36.147  -8.851  26.916  0.00  0.00    +0.033 C 
ATOM     21  C   UNL     1     -33.971  -8.179  25.779  0.00  0.00    +0.066 A 
ENDBRANCH   9  21
ENDBRANCH   1  14
BRANCH   3  22
ATOM     22  C   UNL     1     -35.329 -12.314  23.323  0.00  0.00    +0.252 C 
ATOM     23  O   UNL     1     -36.062 -11.487  22.819  0.00  0.00    -0.270 OA
ATOM     24  N   UNL     1     -35.802 -13.539  23.702  0.00  0.00    -0.270 N 
ATOM     25  C   UNL     1     -34.918 -14.534  24.334  0.00  0.00    +0.116 C 
BRANCH  24  26
ATOM     26  C   UNL     1     -37.219 -13.910  23.524  0.00  0.00    +0.127 C 
BRANCH  26  27
ATOM     27  C   UNL     1     -37.935 -14.085  24.841  0.00  0.00    +0.027 A 
ATOM     28  S   UNL     1     -38.114 -12.817  26.043  0.00  0.00    -0.089 S 
ATOM     29  C   UNL     1     -38.997 -13.903  27.113  0.00  0.00    +0.035 A 
ATOM     30  C   UNL     1     -39.090 -15.111  26.535  0.00  0.00    +0.007 A 
ATOM     31  C   UNL     1     -38.512 -15.211  25.278  0.00  0.00    +0.004 A 
ENDBRANCH  26  27
ENDBRANCH  24  26
ENDBRANCH   3  22
TORSDOF 5
