/web/media/ligands/5J9X_ligand.pdb
 OpenBabel04242009293D

 50 52  0  0  0  0  0  0  0  0999 V2000
    0.0920   38.0230  -24.6890 C   0  0  0  0  0  0  0  0  0  0  0  0
   -0.3750   33.1730  -23.1650 C   0  0  0  0  0  0  0  0  0  0  0  0
   -1.6520   33.4700  -23.6440 C   0  0  0  0  0  0  0  0  0  0  0  0
    0.8110   33.6700  -23.8650 C   0  0  0  0  0  0  0  0  0  0  0  0
   -0.6750   35.6050  -26.6490 C   0  0  0  0  0  0  0  0  0  0  0  0
   -0.4010   37.3680  -27.9300 C   0  0  0  0  0  0  0  0  0  0  0  0
    0.6420   37.4450  -25.8300 C   0  0  0  0  0  0  0  0  0  0  0  0
    2.2100   38.6950  -23.7750 C   0  0  0  0  0  0  0  0  0  0  0  0
    2.2490   33.3670  -23.5020 C   0  0  0  0  0  0  0  0  0  0  0  0
    4.8600   32.0010  -25.1690 C   0  0  0  0  0  0  0  0  0  0  0  0
    6.9100   31.5660  -26.5190 C   0  0  0  0  0  0  0  0  0  0  0  0
   -1.7920   34.2600  -24.7860 C   0  0  0  0  0  0  0  0  0  0  0  0
   -0.5900   34.7380  -25.4770 C   0  0  0  0  0  0  0  0  0  0  0  0
    0.6470   34.4260  -24.9860 C   0  0  0  0  0  0  0  0  0  0  0  0
   -1.4020   35.3850  -27.7800 N   0  0  0  0  0  0  0  0  0  0  0  0
   -0.1200   36.8410  -26.7620 N   0  0  0  0  0  0  0  0  0  0  0  0
   -3.0020   34.5790  -25.3110 O   0  0  0  0  0  0  0  0  0  0  0  0
   -0.2020   32.4230  -22.0540 O   0  0  0  0  0  0  0  0  0  0  0  0
   -1.1860   36.5170  -28.5790 N   0  0  0  0  0  0  0  0  0  0  0  0
    0.0000   38.5170  -28.3110 O   0  0  0  0  0  0  0  0  0  0  0  0
    2.1030   37.5390  -25.9060 C   0  0  0  0  0  0  0  0  0  0  0  0
    2.8460   38.1470  -24.8930 C   0  0  0  0  0  0  0  0  0  0  0  0
    2.7550   32.1640  -23.8240 N   0  0  0  0  0  0  0  0  0  0  0  0
    2.9340   34.2370  -23.0180 O   0  0  0  0  0  0  0  0  0  0  0  0
    4.2020   31.7900  -23.7930 C   0  0  0  0  0  0  0  0  0  0  0  0
    0.8290   38.6250  -23.6700 C   0  0  0  0  0  0  0  0  0  0  0  0
    1.8890   31.0690  -24.2290 C   0  0  0  0  0  0  0  0  0  0  0  0
    6.0860   31.1070  -25.3450 C   0  0  0  0  0  0  0  0  0  0  0  0
    2.6690   37.0180  -27.0030 F   0  0  0  0  0  0  0  0  0  0  0  0
   -0.9830   37.9670  -24.5660 H   0  0  0  0  0  0  0  0  0  0  0  0
   -2.5290   33.1070  -23.1210 H   0  0  0  0  0  0  0  0  0  0  0  0
    2.7910   39.1770  -22.9990 H   0  0  0  0  0  0  0  0  0  0  0  0
    5.1570   33.0470  -25.2720 H   0  0  0  0  0  0  0  0  0  0  0  0
    4.1360   31.7810  -25.9550 H   0  0  0  0  0  0  0  0  0  0  0  0
    6.3240   31.5230  -27.4000 H   0  0  0  0  0  0  0  0  0  0  0  0
    7.7540   30.9350  -26.6250 H   0  0  0  0  0  0  0  0  0  0  0  0
    7.2320   32.5620  -26.3570 H   0  0  0  0  0  0  0  0  0  0  0  0
    1.5250   34.7910  -25.5050 H   0  0  0  0  0  0  0  0  0  0  0  0
   -3.7020   34.2030  -24.7600 H   0  0  0  0  0  0  0  0  0  0  0  0
   -1.0650   32.1670  -21.7000 H   0  0  0  0  0  0  0  0  0  0  0  0
   -1.6400   36.5160  -29.5140 H   0  0  0  0  0  0  0  0  0  0  0  0
    3.9230   38.2140  -24.9840 H   0  0  0  0  0  0  0  0  0  0  0  0
    4.3000   30.7430  -23.5000 H   0  0  0  0  0  0  0  0  0  0  0  0
    4.7180   32.3970  -23.0460 H   0  0  0  0  0  0  0  0  0  0  0  0
    0.3270   39.0430  -22.8070 H   0  0  0  0  0  0  0  0  0  0  0  0
    1.3490   31.3470  -25.0960 H   0  0  0  0  0  0  0  0  0  0  0  0
    1.2100   30.8480  -23.4470 H   0  0  0  0  0  0  0  0  0  0  0  0
    2.4770   30.2130  -24.4380 H   0  0  0  0  0  0  0  0  0  0  0  0
    5.7670   30.0750  -25.5040 H   0  0  0  0  0  0  0  0  0  0  0  0
    6.6940   31.1370  -24.4380 H   0  0  0  0  0  0  0  0  0  0  0  0
  1 30  1  0  0  0  0
  1 26  2  0  0  0  0
  2 18  1  0  0  0  0
  3  2  1  0  0  0  0
  3 31  1  0  0  0  0
  4  9  1  0  0  0  0
  4  2  2  0  0  0  0
  5 13  1  0  0  0  0
  6 16  1  0  0  0  0
  7  1  1  0  0  0  0
  8 26  1  0  0  0  0
  8 32  1  0  0  0  0
  9 24  2  0  0  0  0
 10 25  1  0  0  0  0
 11 37  1  0  0  0  0
 11 28  1  0  0  0  0
 12  3  2  0  0  0  0
 13 14  2  0  0  0  0
 13 12  1  0  0  0  0
 14  4  1  0  0  0  0
 15  5  2  0  0  0  0
 16  5  1  0  0  0  0
 16  7  1  0  0  0  0
 17 12  1  0  0  0  0
 17 39  1  0  0  0  0
 18 40  1  0  0  0  0
 19  6  1  0  0  0  0
 19 15  1  0  0  0  0
 20  6  2  0  0  0  0
 21  7  2  0  0  0  0
 21 22  1  0  0  0  0
 22  8  2  0  0  0  0
 23 25  1  0  0  0  0
 23  9  1  0  0  0  0
 25 43  1  0  0  0  0
 25 44  1  0  0  0  0
 26 45  1  0  0  0  0
 27 23  1  0  0  0  0
 27 47  1  0  0  0  0
 28 10  1  0  0  0  0
 28 50  1  0  0  0  0
 29 21  1  0  0  0  0
 33 10  1  0  0  0  0
 34 10  1  0  0  0  0
 35 11  1  0  0  0  0
 36 11  1  0  0  0  0
 38 14  1  0  0  0  0
 41 19  1  0  0  0  0
 42 22  1  0  0  0  0
 46 27  1  0  0  0  0
 48 27  1  0  0  0  0
 49 28  1  0  0  0  0
M  END
>  <REMARK>
 800 SITE_DESCRIPTION: binding site for residue 6GC A 301                 

>  <HET>
 6GC  A 301      50                                                       

>  <HETNAM>
     6GC N-BUTYL-5-[4-(2-FLUOROPHENYL)-5-OXO-4,5-DIHYDRO-1H-1,2,          
   2 6GC  4-TRIAZOL-3-YL]-2,4-DIHYDROXY-N-METHYLBENZAMIDE                 

>  <FORMUL>
   2  6GC    C20 H21 F N4 O4                                              

$$$$
