REMARK  Name = /web/media/ligands/5LNY_ligand.pdb
REMARK  4 active torsions:
REMARK  status: ('A' for Active; 'I' for Inactive)
REMARK    1  A    between atoms: C_1  and  C_21
REMARK    2  A    between atoms: C_5  and  C_6
REMARK    3  A    between atoms: C_7  and  N_19
REMARK    4  A    between atoms: N_12  and  C_29
REMARK                            x       y       z     vdW  Elec       q    Type
REMARK                         _______ _______ _______ _____ _____    ______ ____
ROOT
ATOM      1  C   UNL     1      -0.657  11.251  25.773  0.00  0.00    +0.093 A 
ATOM      2  C   UNL     1       0.599  11.548  25.184  0.00  0.00    +0.011 A 
ATOM      3  C   UNL     1       0.641  12.115  23.911  0.00  0.00    +0.044 A 
ATOM      4  C   UNL     1       1.711  12.567  23.014  0.00  0.00    +0.158 A 
ATOM      5  N   UNL     1       1.133  13.029  21.916  0.00  0.00    -0.143 NA
ATOM      6  N   UNL     1      -0.153  12.989  21.991  0.00  0.00    -0.148 NA
ATOM      7  C   UNL     1      -0.552  12.436  23.194  0.00  0.00    +0.108 A 
ATOM      8  C   UNL     1      -1.786  12.114  23.767  0.00  0.00    +0.063 A 
ATOM      9  C   UNL     1      -1.831  11.503  25.017  0.00  0.00    +0.202 A 
ATOM     10  O   UNL     1      -3.036  11.199  25.554  0.00  0.00    -0.286 OA
ENDROOT
BRANCH   4  11
ATOM     11  C   UNL     1       3.156  12.381  23.268  0.00  0.00    +0.269 C 
ATOM     12  O   UNL     1       3.629  11.375  22.758  0.00  0.00    -0.268 OA
ATOM     13  N   UNL     1       3.922  13.203  24.045  0.00  0.00    -0.275 N 
ATOM     14  C   UNL     1       3.351  14.457  24.611  0.00  0.00    +0.094 C 
ATOM     15  C   UNL     1       4.176  15.135  25.721  0.00  0.00    +0.022 C 
ATOM     16  C   UNL     1       5.693  14.980  25.494  0.00  0.00    +0.004 C 
ATOM     17  C   UNL     1       6.042  13.486  25.418  0.00  0.00    +0.022 C 
ATOM     18  C   UNL     1       5.381  12.894  24.164  0.00  0.00    +0.094 C 
ENDBRANCH   4  11
BRANCH   1  19
ATOM     19  C   UNL     1      -0.785  10.530  27.076  0.00  0.00    +0.256 C 
ATOM     20  O   UNL     1      -1.510  11.040  27.928  0.00  0.00    -0.269 OA
ATOM     21  N   UNL     1      -0.215   9.290  27.280  0.00  0.00    -0.253 N 
ATOM     22  C   UNL     1      -0.372   8.544  28.542  0.00  0.00    +0.120 C 
BRANCH  21  23
ATOM     23  C   UNL     1       0.578   8.633  26.308  0.00  0.00    +0.054 A 
ATOM     24  C   UNL     1       0.026   8.146  25.107  0.00  0.00    +0.016 A 
ATOM     25  C   UNL     1       0.809   7.499  24.153  0.00  0.00    +0.016 A 
ATOM     26  C   UNL     1       2.201   7.367  24.394  0.00  0.00    +0.048 A 
ATOM     27  C   UNL     1       2.739   7.885  25.585  0.00  0.00    +0.016 A 
ATOM     28  C   UNL     1       1.960   8.506  26.545  0.00  0.00    +0.016 A 
BRANCH  26  29
ATOM     29  N   UNL     1       3.084   6.729  23.479  0.00  0.00    -0.303 N 
ATOM     30  C   UNL     1       2.492   6.171  22.229  0.00  0.00    +0.123 C 
ATOM     31  C   UNL     1       3.593   5.684  21.264  0.00  0.00    +0.164 C 
ATOM     32  O   UNL     1       4.445   4.805  22.013  0.00  0.00    -0.350 OA
ATOM     33  C   UNL     1       5.171   5.460  23.067  0.00  0.00    +0.164 C 
ATOM     34  C   UNL     1       4.147   5.904  24.125  0.00  0.00    +0.123 C 
ENDBRANCH  26  29
ENDBRANCH  21  23
ENDBRANCH   1  19
TORSDOF 4
