@<TRIPOS>MOLECULE
/web/media/ligands/5LNY_ligand.pdb
 34 38 0 0 0
SMALL
GASTEIGER

@<TRIPOS>ATOM
      1 C          -0.7850   10.5300   27.0760 C.2     1  UNL1        0.2559
      2 C          -1.8310   11.5030   25.0170 C.ar    1  UNL1        0.2016
      3 C          -0.5520   12.4360   23.1940 C.ar    1  UNL1        0.1077
      4 C           0.6410   12.1150   23.9110 C.ar    1  UNL1        0.0436
      5 C           1.7110   12.5670   23.0140 C.ar    1  UNL1        0.1576
      6 C           3.1560   12.3810   23.2680 C.2     1  UNL1        0.2686
      7 C           0.5780    8.6330   26.3080 C.ar    1  UNL1        0.0542
      8 C           0.8090    7.4990   24.1530 C.ar    1  UNL1        0.0158
      9 C           2.7390    7.8850   25.5850 C.ar    1  UNL1        0.0158
     10 C           0.0260    8.1460   25.1070 C.ar    1  UNL1        0.0162
     11 C          -0.3720    8.5440   28.5420 C.3     1  UNL1        0.1203
     12 N           3.0840    6.7290   23.4790 N.pl3   1  UNL1       -0.3028
     13 C           2.4920    6.1710   22.2290 C.3     1  UNL1        0.1231
     14 C           5.1710    5.4600   23.0670 C.3     1  UNL1        0.1636
     15 C           5.3810   12.8940   24.1640 C.3     1  UNL1        0.0938
     16 C           6.0420   13.4860   25.4180 C.3     1  UNL1        0.0216
     17 C           5.6930   14.9800   25.4940 C.3     1  UNL1        0.0035
     18 C           4.1760   15.1350   25.7210 C.3     1  UNL1        0.0216
     19 N          -0.2150    9.2900   27.2800 N.am    1  UNL1       -0.2533
     20 O          -1.5100   11.0400   27.9280 O.2     1  UNL1       -0.2695
     21 C          -0.6570   11.2510   25.7730 C.ar    1  UNL1        0.0929
     22 C           0.5990   11.5480   25.1840 C.ar    1  UNL1        0.0110
     23 C          -1.7860   12.1140   23.7670 C.ar    1  UNL1        0.0631
     24 O          -3.0360   11.1990   25.5540 O.3     1  UNL1       -0.2864
     25 N           1.1330   13.0290   21.9160 N.ar    1  UNL1       -0.1433
     26 N          -0.1530   12.9890   21.9910 N.ar    1  UNL1       -0.1477
     27 O           3.6290   11.3750   22.7580 O.2     1  UNL1       -0.2682
     28 C           1.9600    8.5060   26.5450 C.ar    1  UNL1        0.0162
     29 C           2.2010    7.3670   24.3940 C.ar    1  UNL1        0.0481
     30 C           3.5930    5.6840   21.2640 C.3     1  UNL1        0.1636
     31 O           4.4450    4.8050   22.0130 O.3     1  UNL1       -0.3501
     32 C           4.1470    5.9040   24.1250 C.3     1  UNL1        0.1231
     33 C           3.3510   14.4570   24.6110 C.3     1  UNL1        0.0938
     34 N           3.9220   13.2030   24.0450 N.am    1  UNL1       -0.2748
@<TRIPOS>BOND
     1     1    19   am
     2     1    20    2
     3     2    24    1
     4     2    21   ar
     5     3    23   ar
     6     3     4   ar
     7     4    22   ar
     8     5     6    1
     9     5     4   ar
    10     6    34   am
    11     7    28   ar
    12     7    19    1
    13     8    29   ar
    14     8    10   ar
    15     9    28   ar
    16    10     7   ar
    17    12    32    1
    18    12    29    1
    19    13    12    1
    20    14    32    1
    21    15    16    1
    22    16    17    1
    23    17    18    1
    24    19    11    1
    25    21     1    1
    26    22    21   ar
    27    23     2   ar
    28    25    26   ar
    29    25     5   ar
    30    26     3   ar
    31    27     6    2
    32    29     9   ar
    33    30    31    1
    34    30    13    1
    35    31    14    1
    36    33    18    1
    37    34    15    1
    38    34    33    1
