/web/media/ligands/5LNZ_ligand.pdb
 OpenBabel04242009293D

 68 26  0  0  0  0  0  0  0  0999 V2000
    0.7340   10.4480   22.5250 C   0  0  0  0  0  0  0  0  0  0  0  0
    0.7350   10.4560   22.5300 C   0  0  0  0  0  0  0  0  0  0  0  0
    1.8550   11.3710   24.5390 C   0  0  0  0  0  0  0  0  0  0  0  0
    1.8570   11.3740   24.5400 C   0  0  0  0  0  0  0  0  0  0  0  0
    0.6150   12.2210   26.4010 C   0  0  0  0  0  0  0  0  0  0  0  0
    0.6200   12.2170   26.4060 C   0  0  0  0  0  0  0  0  0  0  0  0
   -0.5650   11.9350   25.7150 C   0  0  0  0  0  0  0  0  0  0  0  0
   -0.5620   11.9320   25.7230 C   0  0  0  0  0  0  0  0  0  0  0  0
   -1.6010   12.3670   26.6500 C   0  0  0  0  0  0  0  0  0  0  0  0
   -1.5920   12.3560   26.6660 C   0  0  0  0  0  0  0  0  0  0  0  0
   -3.0470   12.3160   26.3450 C   0  0  0  0  0  0  0  0  0  0  0  0
   -3.0380   12.3130   26.3570 C   0  0  0  0  0  0  0  0  0  0  0  0
   -0.6590    8.6120   23.3010 C   0  0  0  0  0  0  0  0  0  0  0  0
   -0.6620    8.6150   23.2970 C   0  0  0  0  0  0  0  0  0  0  0  0
   -0.9130    7.5010   25.4190 C   0  0  0  0  0  0  0  0  0  0  0  0
   -0.8890    7.4750   25.3930 C   0  0  0  0  0  0  0  0  0  0  0  0
   -2.8000    7.7740   23.9950 C   0  0  0  0  0  0  0  0  0  0  0  0
   -2.7890    7.7260   23.9810 C   0  0  0  0  0  0  0  0  0  0  0  0
   -0.1210    8.1360   24.4830 C   0  0  0  0  0  0  0  0  0  0  0  0
   -0.1110    8.1340   24.4680 C   0  0  0  0  0  0  0  0  0  0  0  0
    0.1890    8.6140   21.0350 C   0  0  0  0  0  0  0  0  0  0  0  0
    0.1850    8.6270   21.0410 C   0  0  0  0  0  0  0  0  0  0  0  0
   -3.1090    6.6740   26.1480 N   0  0  0  0  0  0  0  0  0  0  0  0
   -3.0380    6.5670   26.1200 N   0  0  0  0  0  0  0  0  0  0  0  0
   -5.0190   13.4380   25.3480 C   0  0  0  0  0  0  0  0  0  0  0  0
   -5.0050   13.4530   25.3730 C   0  0  0  0  0  0  0  0  0  0  0  0
   -5.3580   13.7200   23.8950 C   0  0  0  0  0  0  0  0  0  0  0  0
   -5.3000   13.5620   23.8900 C   0  0  0  0  0  0  0  0  0  0  0  0
   -6.8220   13.2890   23.7460 C   0  0  0  0  0  0  0  0  0  0  0  0
   -4.8550   14.9290   23.4320 C   0  0  0  0  0  0  0  0  0  0  0  0
   -2.8210   14.5340   25.2620 C   0  0  0  0  0  0  0  0  0  0  0  0
   -2.7760   14.5540   25.3240 C   0  0  0  0  0  0  0  0  0  0  0  0
   -7.4390   13.9460   22.5270 C   0  0  0  0  0  0  0  0  0  0  0  0
   -5.8460   15.9460   23.9420 C   0  0  0  0  0  0  0  0  0  0  0  0
    0.1030    9.2610   22.3220 N   0  0  0  0  0  0  0  0  0  0  0  0
    0.0970    9.2770   22.3270 N   0  0  0  0  0  0  0  0  0  0  0  0
    1.3940   10.9680   21.6780 O   0  0  0  0  0  0  0  0  0  0  0  0
    1.3930   10.9720   21.6790 O   0  0  0  0  0  0  0  0  0  0  0  0
    0.6590   11.0820   23.8540 C   0  0  0  0  0  0  0  0  0  0  0  0
    0.6600   11.0860   23.8590 C   0  0  0  0  0  0  0  0  0  0  0  0
   -0.5550   11.3760   24.4520 C   0  0  0  0  0  0  0  0  0  0  0  0
   -0.5540   11.3750   24.4590 C   0  0  0  0  0  0  0  0  0  0  0  0
    1.8170   11.9250   25.7920 C   0  0  0  0  0  0  0  0  0  0  0  0
    1.8200   11.9240   25.7950 C   0  0  0  0  0  0  0  0  0  0  0  0
    3.0430   11.0980   23.9880 O   0  0  0  0  0  0  0  0  0  0  0  0
    3.0430   11.1020   23.9850 O   0  0  0  0  0  0  0  0  0  0  0  0
   -0.9960   12.8330   27.7170 N   0  0  0  0  0  0  0  0  0  0  0  0
   -0.9870   12.8280   27.7280 N   0  0  0  0  0  0  0  0  0  0  0  0
    0.2630   12.7560   27.6030 N   0  0  0  0  0  0  0  0  0  0  0  0
    0.2700   12.7500   27.6100 N   0  0  0  0  0  0  0  0  0  0  0  0
   -3.6510   11.3710   26.6990 O   0  0  0  0  0  0  0  0  0  0  0  0
   -3.6500   11.3660   26.6900 O   0  0  0  0  0  0  0  0  0  0  0  0
   -2.0070    8.4130   23.0730 C   0  0  0  0  0  0  0  0  0  0  0  0
   -2.0070    8.3910   23.0670 C   0  0  0  0  0  0  0  0  0  0  0  0
   -2.2720    7.3030   25.1930 C   0  0  0  0  0  0  0  0  0  0  0  0
   -2.2460    7.2610   25.1740 C   0  0  0  0  0  0  0  0  0  0  0  0
   -3.6040   13.3640   25.6620 N   0  0  0  0  0  0  0  0  0  0  0  0
   -3.5850   13.3780   25.6910 N   0  0  0  0  0  0  0  0  0  0  0  0
   -2.5050    6.1620   27.3700 C   0  0  0  0  0  0  0  0  0  0  0  0
   -4.4340    6.2910   25.8120 C   0  0  0  0  0  0  0  0  0  0  0  0
   -3.5590    5.7510   28.4060 C   0  0  0  0  0  0  0  0  0  0  0  0
   -5.1130    5.3830   26.8390 C   0  0  0  0  0  0  0  0  0  0  0  0
   -4.5660    5.0020   27.7780 O   0  0  0  0  0  0  0  0  0  0  0  0
   -4.6320    5.6400   28.1420 O   0  0  0  0  0  0  0  0  0  0  0  0
   -5.2640    5.7220   26.7930 C   0  0  0  0  0  0  0  0  0  0  0  0
   -3.2670    5.4180   28.3060 C   0  0  0  0  0  0  0  0  0  0  0  0
   -4.3020    6.0120   25.6520 C   0  0  0  0  0  0  0  0  0  0  0  0
   -2.5430    6.4720   27.4840 C   0  0  0  0  0  0  0  0  0  0  0  0
 12 51  2  0  0  0  0
 13 20  1  0  0  0  0
 19 16  3  0  0  0  0
 22 35  1  0  0  0  0
 26 57  1  0  0  0  0
 29 27  1  0  0  0  0
 30 27  1  0  0  0  0
 30 34  1  0  0  0  0
 31 58  1  0  0  0  0
 33 29  1  0  0  0  0
 37  2  2  0  0  0  0
 40 41  1  0  0  0  0
 42  7  1  0  0  0  0
 45  4  1  0  0  0  0
 49 48  3  0  0  0  0
 53 14  1  0  0  0  0
 54 17  3  0  0  0  0
 55 24  1  0  0  0  0
 56 15  1  0  0  0  0
 59 66  1  0  0  0  0
 60 23  1  0  0  0  0
 60 65  1  0  0  0  0
 62 63  1  0  0  0  0
 63 64  1  0  0  0  0
 64 61  1  0  0  0  0
 66 61  1  0  0  0  0
M  END
>  <REMARK>
 800 SITE_DESCRIPTION: binding site for residue 70Z A 301                 

>  <HET>
 70Z  A 301      68                                                       

>  <HETNAM>
     70Z ~{N}3-BUTYL-~{N}3,~{N}5-DIMETHYL-~{N}5-(4-MORPHOLIN-4-           
   2 70Z  YLPHENYL)-6-OXIDANYL-2~{H}-INDAZOLE-3,5-DICARBOXAMIDE           

>  <FORMUL>
   2  70Z    C25 H31 N5 O4                                                

$$$$
