REMARK  Name = /web/media/ligands/5LNZ_ligand.pdb
REMARK  5 active torsions:
REMARK  status: ('A' for Active; 'I' for Inactive)
REMARK    1  A    between atoms: C_27  and  C_29
REMARK    2  A    between atoms: C_27  and  C_30
REMARK    3  A    between atoms: C_61  and  O_64
REMARK    4  A    between atoms: C_61  and  C_66
REMARK    5  A    between atoms: O_63  and  O_64
REMARK                            x       y       z     vdW  Elec       q    Type
REMARK                         _______ _______ _______ _____ _____    ______ ____
ROOT
ATOM      1  C   UNL     1       0.734  10.448  22.525  0.00  0.00    +0.000 C 
ENDROOT
TORSDOF 0
REMARK  Name = /web/media/ligands/5LNZ_ligand.pdb
REMARK  5 active torsions:
REMARK  status: ('A' for Active; 'I' for Inactive)
REMARK    1  A    between atoms: C_27  and  C_29
REMARK    2  A    between atoms: C_27  and  C_30
REMARK    3  A    between atoms: C_61  and  O_64
REMARK    4  A    between atoms: C_61  and  C_66
REMARK    5  A    between atoms: O_63  and  O_64
REMARK                            x       y       z     vdW  Elec       q    Type
REMARK                         _______ _______ _______ _____ _____    ______ ____
ROOT
ATOM      1  C   UNL     1       0.735  10.456  22.530  0.00  0.00    +0.279 C 
ATOM      2  O   UNL     1       1.394  10.968  21.678  0.00  0.00    -0.279 OA
ENDROOT
TORSDOF 0
REMARK  Name = /web/media/ligands/5LNZ_ligand.pdb
REMARK  5 active torsions:
REMARK  status: ('A' for Active; 'I' for Inactive)
REMARK    1  A    between atoms: C_27  and  C_29
REMARK    2  A    between atoms: C_27  and  C_30
REMARK    3  A    between atoms: C_61  and  O_64
REMARK    4  A    between atoms: C_61  and  C_66
REMARK    5  A    between atoms: O_63  and  O_64
REMARK                            x       y       z     vdW  Elec       q    Type
REMARK                         _______ _______ _______ _____ _____    ______ ____
ROOT
ATOM      1  C   UNL     1       1.855  11.371  24.539  0.00  0.00    +0.000 C 
ENDROOT
TORSDOF 0
REMARK  Name = /web/media/ligands/5LNZ_ligand.pdb
REMARK  5 active torsions:
REMARK  status: ('A' for Active; 'I' for Inactive)
REMARK    1  A    between atoms: C_27  and  C_29
REMARK    2  A    between atoms: C_27  and  C_30
REMARK    3  A    between atoms: C_61  and  O_64
REMARK    4  A    between atoms: C_61  and  C_66
REMARK    5  A    between atoms: O_63  and  O_64
REMARK                            x       y       z     vdW  Elec       q    Type
REMARK                         _______ _______ _______ _____ _____    ______ ____
ROOT
ATOM      1  C   UNL     1       1.857  11.374  24.540  0.00  0.00    +0.217 C 
ATOM      2  O   UNL     1       3.043  11.098  23.988  0.00  0.00    -0.217 OA
ENDROOT
TORSDOF 0
REMARK  Name = /web/media/ligands/5LNZ_ligand.pdb
REMARK  5 active torsions:
REMARK  status: ('A' for Active; 'I' for Inactive)
REMARK    1  A    between atoms: C_27  and  C_29
REMARK    2  A    between atoms: C_27  and  C_30
REMARK    3  A    between atoms: C_61  and  O_64
REMARK    4  A    between atoms: C_61  and  C_66
REMARK    5  A    between atoms: O_63  and  O_64
REMARK                            x       y       z     vdW  Elec       q    Type
REMARK                         _______ _______ _______ _____ _____    ______ ____
ROOT
ATOM      1  C   UNL     1       0.615  12.221  26.401  0.00  0.00    +0.000 C 
ENDROOT
TORSDOF 0
REMARK  Name = /web/media/ligands/5LNZ_ligand.pdb
REMARK  5 active torsions:
REMARK  status: ('A' for Active; 'I' for Inactive)
REMARK    1  A    between atoms: C_27  and  C_29
REMARK    2  A    between atoms: C_27  and  C_30
REMARK    3  A    between atoms: C_61  and  O_64
REMARK    4  A    between atoms: C_61  and  C_66
REMARK    5  A    between atoms: O_63  and  O_64
REMARK                            x       y       z     vdW  Elec       q    Type
REMARK                         _______ _______ _______ _____ _____    ______ ____
ROOT
ATOM      1  C   UNL     1       0.620  12.217  26.406  0.00  0.00    +0.000 C 
ENDROOT
TORSDOF 0
REMARK  Name = /web/media/ligands/5LNZ_ligand.pdb
REMARK  5 active torsions:
REMARK  status: ('A' for Active; 'I' for Inactive)
REMARK    1  A    between atoms: C_27  and  C_29
REMARK    2  A    between atoms: C_27  and  C_30
REMARK    3  A    between atoms: C_61  and  O_64
REMARK    4  A    between atoms: C_61  and  C_66
REMARK    5  A    between atoms: O_63  and  O_64
REMARK                            x       y       z     vdW  Elec       q    Type
REMARK                         _______ _______ _______ _____ _____    ______ ____
ROOT
ATOM      1  C   UNL     1      -0.565  11.935  25.715  0.00  0.00    +0.000 C 
ATOM      2  C   UNL     1      -0.554  11.375  24.459  0.00  0.00    +0.000 C 
ENDROOT
TORSDOF 0
REMARK  Name = /web/media/ligands/5LNZ_ligand.pdb
REMARK  5 active torsions:
REMARK  status: ('A' for Active; 'I' for Inactive)
REMARK    1  A    between atoms: C_27  and  C_29
REMARK    2  A    between atoms: C_27  and  C_30
REMARK    3  A    between atoms: C_61  and  O_64
REMARK    4  A    between atoms: C_61  and  C_66
REMARK    5  A    between atoms: O_63  and  O_64
REMARK                            x       y       z     vdW  Elec       q    Type
REMARK                         _______ _______ _______ _____ _____    ______ ____
ROOT
ATOM      1  C   UNL     1      -0.562  11.932  25.723  0.00  0.00    +0.000 C 
ENDROOT
TORSDOF 0
REMARK  Name = /web/media/ligands/5LNZ_ligand.pdb
REMARK  5 active torsions:
REMARK  status: ('A' for Active; 'I' for Inactive)
REMARK    1  A    between atoms: C_27  and  C_29
REMARK    2  A    between atoms: C_27  and  C_30
REMARK    3  A    between atoms: C_61  and  O_64
REMARK    4  A    between atoms: C_61  and  C_66
REMARK    5  A    between atoms: O_63  and  O_64
REMARK                            x       y       z     vdW  Elec       q    Type
REMARK                         _______ _______ _______ _____ _____    ______ ____
ROOT
ATOM      1  C   UNL     1      -1.601  12.367  26.650  0.00  0.00    +0.000 C 
ENDROOT
TORSDOF 0
REMARK  Name = /web/media/ligands/5LNZ_ligand.pdb
REMARK  5 active torsions:
REMARK  status: ('A' for Active; 'I' for Inactive)
REMARK    1  A    between atoms: C_27  and  C_29
REMARK    2  A    between atoms: C_27  and  C_30
REMARK    3  A    between atoms: C_61  and  O_64
REMARK    4  A    between atoms: C_61  and  C_66
REMARK    5  A    between atoms: O_63  and  O_64
REMARK                            x       y       z     vdW  Elec       q    Type
REMARK                         _______ _______ _______ _____ _____    ______ ____
ROOT
ATOM      1  C   UNL     1      -1.592  12.356  26.666  0.00  0.00    +0.000 C 
ENDROOT
TORSDOF 0
REMARK  Name = /web/media/ligands/5LNZ_ligand.pdb
REMARK  5 active torsions:
REMARK  status: ('A' for Active; 'I' for Inactive)
REMARK    1  A    between atoms: C_27  and  C_29
REMARK    2  A    between atoms: C_27  and  C_30
REMARK    3  A    between atoms: C_61  and  O_64
REMARK    4  A    between atoms: C_61  and  C_66
REMARK    5  A    between atoms: O_63  and  O_64
REMARK                            x       y       z     vdW  Elec       q    Type
REMARK                         _______ _______ _______ _____ _____    ______ ____
ROOT
ATOM      1  C   UNL     1      -3.047  12.316  26.345  0.00  0.00    +0.000 C 
ENDROOT
TORSDOF 0
REMARK  Name = /web/media/ligands/5LNZ_ligand.pdb
REMARK  5 active torsions:
REMARK  status: ('A' for Active; 'I' for Inactive)
REMARK    1  A    between atoms: C_27  and  C_29
REMARK    2  A    between atoms: C_27  and  C_30
REMARK    3  A    between atoms: C_61  and  O_64
REMARK    4  A    between atoms: C_61  and  C_66
REMARK    5  A    between atoms: O_63  and  O_64
REMARK                            x       y       z     vdW  Elec       q    Type
REMARK                         _______ _______ _______ _____ _____    ______ ____
ROOT
ATOM      1  C   UNL     1      -3.038  12.313  26.357  0.00  0.00    +0.279 C 
ATOM      2  O   UNL     1      -3.651  11.371  26.699  0.00  0.00    -0.279 OA
ENDROOT
TORSDOF 0
REMARK  Name = /web/media/ligands/5LNZ_ligand.pdb
REMARK  5 active torsions:
REMARK  status: ('A' for Active; 'I' for Inactive)
REMARK    1  A    between atoms: C_27  and  C_29
REMARK    2  A    between atoms: C_27  and  C_30
REMARK    3  A    between atoms: C_61  and  O_64
REMARK    4  A    between atoms: C_61  and  C_66
REMARK    5  A    between atoms: O_63  and  O_64
REMARK                            x       y       z     vdW  Elec       q    Type
REMARK                         _______ _______ _______ _____ _____    ______ ____
ROOT
ATOM      1  C   UNL     1      -0.659   8.612  23.301  0.00  0.00    +0.000 C 
ATOM      2  C   UNL     1      -0.111   8.134  24.468  0.00  0.00    +0.000 C 
ENDROOT
TORSDOF 0
REMARK  Name = /web/media/ligands/5LNZ_ligand.pdb
REMARK  5 active torsions:
REMARK  status: ('A' for Active; 'I' for Inactive)
REMARK    1  A    between atoms: C_27  and  C_29
REMARK    2  A    between atoms: C_27  and  C_30
REMARK    3  A    between atoms: C_61  and  O_64
REMARK    4  A    between atoms: C_61  and  C_66
REMARK    5  A    between atoms: O_63  and  O_64
REMARK                            x       y       z     vdW  Elec       q    Type
REMARK                         _______ _______ _______ _____ _____    ______ ____
ROOT
ATOM      1  C   UNL     1      -0.662   8.615  23.297  0.00  0.00    +0.000 C 
ATOM      2  C   UNL     1      -2.007   8.413  23.073  0.00  0.00    +0.000 C 
ENDROOT
TORSDOF 0
REMARK  Name = /web/media/ligands/5LNZ_ligand.pdb
REMARK  5 active torsions:
REMARK  status: ('A' for Active; 'I' for Inactive)
REMARK    1  A    between atoms: C_27  and  C_29
REMARK    2  A    between atoms: C_27  and  C_30
REMARK    3  A    between atoms: C_61  and  O_64
REMARK    4  A    between atoms: C_61  and  C_66
REMARK    5  A    between atoms: O_63  and  O_64
REMARK                            x       y       z     vdW  Elec       q    Type
REMARK                         _______ _______ _______ _____ _____    ______ ____
ROOT
ATOM      1  C   UNL     1      -0.913   7.501  25.419  0.00  0.00    +0.000 C 
ATOM      2  C   UNL     1      -2.246   7.261  25.174  0.00  0.00    +0.000 C 
ENDROOT
TORSDOF 0
REMARK  Name = /web/media/ligands/5LNZ_ligand.pdb
REMARK  5 active torsions:
REMARK  status: ('A' for Active; 'I' for Inactive)
REMARK    1  A    between atoms: C_27  and  C_29
REMARK    2  A    between atoms: C_27  and  C_30
REMARK    3  A    between atoms: C_61  and  O_64
REMARK    4  A    between atoms: C_61  and  C_66
REMARK    5  A    between atoms: O_63  and  O_64
REMARK                            x       y       z     vdW  Elec       q    Type
REMARK                         _______ _______ _______ _____ _____    ______ ____
ROOT
ATOM      1  C   UNL     1      -0.889   7.475  25.393  0.00  0.00    +0.000 C 
ATOM      2  C   UNL     1      -0.121   8.136  24.483  0.00  0.00    +0.000 C 
ENDROOT
TORSDOF 0
REMARK  Name = /web/media/ligands/5LNZ_ligand.pdb
REMARK  5 active torsions:
REMARK  status: ('A' for Active; 'I' for Inactive)
REMARK    1  A    between atoms: C_27  and  C_29
REMARK    2  A    between atoms: C_27  and  C_30
REMARK    3  A    between atoms: C_61  and  O_64
REMARK    4  A    between atoms: C_61  and  C_66
REMARK    5  A    between atoms: O_63  and  O_64
REMARK                            x       y       z     vdW  Elec       q    Type
REMARK                         _______ _______ _______ _____ _____    ______ ____
ROOT
ATOM      1  C   UNL     1      -2.800   7.774  23.995  0.00  0.00    +0.000 C 
ATOM      2  C   UNL     1      -2.007   8.391  23.067  0.00  0.00    +0.000 C 
ENDROOT
TORSDOF 0
REMARK  Name = /web/media/ligands/5LNZ_ligand.pdb
REMARK  5 active torsions:
REMARK  status: ('A' for Active; 'I' for Inactive)
REMARK    1  A    between atoms: C_27  and  C_29
REMARK    2  A    between atoms: C_27  and  C_30
REMARK    3  A    between atoms: C_61  and  O_64
REMARK    4  A    between atoms: C_61  and  C_66
REMARK    5  A    between atoms: O_63  and  O_64
REMARK                            x       y       z     vdW  Elec       q    Type
REMARK                         _______ _______ _______ _____ _____    ______ ____
ROOT
ATOM      1  C   UNL     1      -2.789   7.726  23.981  0.00  0.00    +0.000 C 
ENDROOT
TORSDOF 0
REMARK  Name = /web/media/ligands/5LNZ_ligand.pdb
REMARK  5 active torsions:
REMARK  status: ('A' for Active; 'I' for Inactive)
REMARK    1  A    between atoms: C_27  and  C_29
REMARK    2  A    between atoms: C_27  and  C_30
REMARK    3  A    between atoms: C_61  and  O_64
REMARK    4  A    between atoms: C_61  and  C_66
REMARK    5  A    between atoms: O_63  and  O_64
REMARK                            x       y       z     vdW  Elec       q    Type
REMARK                         _______ _______ _______ _____ _____    ______ ____
ROOT
ATOM      1  C   UNL     1       0.189   8.614  21.035  0.00  0.00    +0.000 C 
ENDROOT
TORSDOF 0
REMARK  Name = /web/media/ligands/5LNZ_ligand.pdb
REMARK  5 active torsions:
REMARK  status: ('A' for Active; 'I' for Inactive)
REMARK    1  A    between atoms: C_27  and  C_29
REMARK    2  A    between atoms: C_27  and  C_30
REMARK    3  A    between atoms: C_61  and  O_64
REMARK    4  A    between atoms: C_61  and  C_66
REMARK    5  A    between atoms: O_63  and  O_64
REMARK                            x       y       z     vdW  Elec       q    Type
REMARK                         _______ _______ _______ _____ _____    ______ ____
ROOT
ATOM      1  C   UNL     1       0.185   8.627  21.041  0.00  0.00    +0.130 C 
ATOM      2  N   UNL     1       0.103   9.261  22.322  0.00  0.00    -0.130 NA
ENDROOT
TORSDOF 0
REMARK  Name = /web/media/ligands/5LNZ_ligand.pdb
REMARK  5 active torsions:
REMARK  status: ('A' for Active; 'I' for Inactive)
REMARK    1  A    between atoms: C_27  and  C_29
REMARK    2  A    between atoms: C_27  and  C_30
REMARK    3  A    between atoms: C_61  and  O_64
REMARK    4  A    between atoms: C_61  and  C_66
REMARK    5  A    between atoms: O_63  and  O_64
REMARK                            x       y       z     vdW  Elec       q    Type
REMARK                         _______ _______ _______ _____ _____    ______ ____
ROOT
ATOM      1  N   UNL     1      -3.109   6.674  26.148  0.00  0.00    -0.131 NA
ATOM      2  C   UNL     1      -4.434   6.291  25.812  0.00  0.00    +0.109 C 
ATOM      3  C   UNL     1      -5.264   5.722  26.793  0.00  0.00    +0.022 C 
ENDROOT
TORSDOF 0
REMARK  Name = /web/media/ligands/5LNZ_ligand.pdb
REMARK  5 active torsions:
REMARK  status: ('A' for Active; 'I' for Inactive)
REMARK    1  A    between atoms: C_27  and  C_29
REMARK    2  A    between atoms: C_27  and  C_30
REMARK    3  A    between atoms: C_61  and  O_64
REMARK    4  A    between atoms: C_61  and  C_66
REMARK    5  A    between atoms: O_63  and  O_64
REMARK                            x       y       z     vdW  Elec       q    Type
REMARK                         _______ _______ _______ _____ _____    ______ ____
ROOT
ATOM      1  N   UNL     1      -3.038   6.567  26.120  0.00  0.00    -0.130 NA
ATOM      2  C   UNL     1      -2.272   7.303  25.193  0.00  0.00    +0.130 C 
ENDROOT
TORSDOF 0
REMARK  Name = /web/media/ligands/5LNZ_ligand.pdb
REMARK  5 active torsions:
REMARK  status: ('A' for Active; 'I' for Inactive)
REMARK    1  A    between atoms: C_27  and  C_29
REMARK    2  A    between atoms: C_27  and  C_30
REMARK    3  A    between atoms: C_61  and  O_64
REMARK    4  A    between atoms: C_61  and  C_66
REMARK    5  A    between atoms: O_63  and  O_64
REMARK                            x       y       z     vdW  Elec       q    Type
REMARK                         _______ _______ _______ _____ _____    ______ ____
ROOT
ATOM      1  C   UNL     1      -5.019  13.438  25.348  0.00  0.00    +0.000 C 
ENDROOT
TORSDOF 0
REMARK  Name = /web/media/ligands/5LNZ_ligand.pdb
REMARK  5 active torsions:
REMARK  status: ('A' for Active; 'I' for Inactive)
REMARK    1  A    between atoms: C_27  and  C_29
REMARK    2  A    between atoms: C_27  and  C_30
REMARK    3  A    between atoms: C_61  and  O_64
REMARK    4  A    between atoms: C_61  and  C_66
REMARK    5  A    between atoms: O_63  and  O_64
REMARK                            x       y       z     vdW  Elec       q    Type
REMARK                         _______ _______ _______ _____ _____    ______ ____
ROOT
ATOM      1  C   UNL     1      -5.005  13.453  25.373  0.00  0.00    +0.130 C 
ATOM      2  N   UNL     1      -3.604  13.364  25.662  0.00  0.00    -0.130 NA
ENDROOT
TORSDOF 0
REMARK  Name = /web/media/ligands/5LNZ_ligand.pdb
REMARK  5 active torsions:
REMARK  status: ('A' for Active; 'I' for Inactive)
REMARK    1  A    between atoms: C_27  and  C_29
REMARK    2  A    between atoms: C_27  and  C_30
REMARK    3  A    between atoms: C_61  and  O_64
REMARK    4  A    between atoms: C_61  and  C_66
REMARK    5  A    between atoms: O_63  and  O_64
REMARK                            x       y       z     vdW  Elec       q    Type
REMARK                         _______ _______ _______ _____ _____    ______ ____
ROOT
ATOM      1  C   UNL     1      -5.358  13.720  23.895  0.00  0.00    +0.000 C 
ENDROOT
BRANCH   1   2
ATOM      2  C   UNL     1      -4.855  14.929  23.432  0.00  0.00    +0.000 C 
ATOM      3  C   UNL     1      -5.846  15.946  23.942  0.00  0.00    +0.000 C 
ENDBRANCH   1   2
BRANCH   1   4
ATOM      4  C   UNL     1      -6.822  13.289  23.746  0.00  0.00    +0.000 C 
ATOM      5  C   UNL     1      -7.439  13.946  22.527  0.00  0.00    +0.000 C 
ENDBRANCH   1   4
TORSDOF 2
REMARK  Name = /web/media/ligands/5LNZ_ligand.pdb
REMARK  5 active torsions:
REMARK  status: ('A' for Active; 'I' for Inactive)
REMARK    1  A    between atoms: C_27  and  C_29
REMARK    2  A    between atoms: C_27  and  C_30
REMARK    3  A    between atoms: C_61  and  O_64
REMARK    4  A    between atoms: C_61  and  C_66
REMARK    5  A    between atoms: O_63  and  O_64
REMARK                            x       y       z     vdW  Elec       q    Type
REMARK                         _______ _______ _______ _____ _____    ______ ____
ROOT
ATOM      1  C   UNL     1      -5.300  13.562  23.890  0.00  0.00    +0.000 C 
ENDROOT
TORSDOF 0
REMARK  Name = /web/media/ligands/5LNZ_ligand.pdb
REMARK  5 active torsions:
REMARK  status: ('A' for Active; 'I' for Inactive)
REMARK    1  A    between atoms: C_27  and  C_29
REMARK    2  A    between atoms: C_27  and  C_30
REMARK    3  A    between atoms: C_61  and  O_64
REMARK    4  A    between atoms: C_61  and  C_66
REMARK    5  A    between atoms: O_63  and  O_64
REMARK                            x       y       z     vdW  Elec       q    Type
REMARK                         _______ _______ _______ _____ _____    ______ ____
ROOT
ATOM      1  C   UNL     1      -2.821  14.534  25.262  0.00  0.00    +0.130 C 
ATOM      2  N   UNL     1      -3.585  13.378  25.691  0.00  0.00    -0.130 NA
ENDROOT
TORSDOF 0
REMARK  Name = /web/media/ligands/5LNZ_ligand.pdb
REMARK  5 active torsions:
REMARK  status: ('A' for Active; 'I' for Inactive)
REMARK    1  A    between atoms: C_27  and  C_29
REMARK    2  A    between atoms: C_27  and  C_30
REMARK    3  A    between atoms: C_61  and  O_64
REMARK    4  A    between atoms: C_61  and  C_66
REMARK    5  A    between atoms: O_63  and  O_64
REMARK                            x       y       z     vdW  Elec       q    Type
REMARK                         _______ _______ _______ _____ _____    ______ ____
ROOT
ATOM      1  C   UNL     1      -2.776  14.554  25.324  0.00  0.00    +0.000 C 
ENDROOT
TORSDOF 0
REMARK  Name = /web/media/ligands/5LNZ_ligand.pdb
REMARK  5 active torsions:
REMARK  status: ('A' for Active; 'I' for Inactive)
REMARK    1  A    between atoms: C_27  and  C_29
REMARK    2  A    between atoms: C_27  and  C_30
REMARK    3  A    between atoms: C_61  and  O_64
REMARK    4  A    between atoms: C_61  and  C_66
REMARK    5  A    between atoms: O_63  and  O_64
REMARK                            x       y       z     vdW  Elec       q    Type
REMARK                         _______ _______ _______ _____ _____    ______ ____
ROOT
ATOM      1  N   UNL     1       0.097   9.277  22.327  0.00  0.00    +0.000 NA
ENDROOT
TORSDOF 0
REMARK  Name = /web/media/ligands/5LNZ_ligand.pdb
REMARK  5 active torsions:
REMARK  status: ('A' for Active; 'I' for Inactive)
REMARK    1  A    between atoms: C_27  and  C_29
REMARK    2  A    between atoms: C_27  and  C_30
REMARK    3  A    between atoms: C_61  and  O_64
REMARK    4  A    between atoms: C_61  and  C_66
REMARK    5  A    between atoms: O_63  and  O_64
REMARK                            x       y       z     vdW  Elec       q    Type
REMARK                         _______ _______ _______ _____ _____    ______ ____
ROOT
ATOM      1  O   HOH     1       1.393  10.972  21.679  0.00  0.00    +0.000 OA
ENDROOT
TORSDOF 0
REMARK  Name = /web/media/ligands/5LNZ_ligand.pdb
REMARK  5 active torsions:
REMARK  status: ('A' for Active; 'I' for Inactive)
REMARK    1  A    between atoms: C_27  and  C_29
REMARK    2  A    between atoms: C_27  and  C_30
REMARK    3  A    between atoms: C_61  and  O_64
REMARK    4  A    between atoms: C_61  and  C_66
REMARK    5  A    between atoms: O_63  and  O_64
REMARK                            x       y       z     vdW  Elec       q    Type
REMARK                         _______ _______ _______ _____ _____    ______ ____
ROOT
ATOM      1  C   UNL     1       0.659  11.082  23.854  0.00  0.00    +0.000 C 
ENDROOT
TORSDOF 0
REMARK  Name = /web/media/ligands/5LNZ_ligand.pdb
REMARK  5 active torsions:
REMARK  status: ('A' for Active; 'I' for Inactive)
REMARK    1  A    between atoms: C_27  and  C_29
REMARK    2  A    between atoms: C_27  and  C_30
REMARK    3  A    between atoms: C_61  and  O_64
REMARK    4  A    between atoms: C_61  and  C_66
REMARK    5  A    between atoms: O_63  and  O_64
REMARK                            x       y       z     vdW  Elec       q    Type
REMARK                         _______ _______ _______ _____ _____    ______ ____
ROOT
ATOM      1  C   UNL     1       0.660  11.086  23.859  0.00  0.00    +0.000 C 
ATOM      2  C   UNL     1      -0.555  11.376  24.452  0.00  0.00    +0.000 C 
ENDROOT
TORSDOF 0
REMARK  Name = /web/media/ligands/5LNZ_ligand.pdb
REMARK  5 active torsions:
REMARK  status: ('A' for Active; 'I' for Inactive)
REMARK    1  A    between atoms: C_27  and  C_29
REMARK    2  A    between atoms: C_27  and  C_30
REMARK    3  A    between atoms: C_61  and  O_64
REMARK    4  A    between atoms: C_61  and  C_66
REMARK    5  A    between atoms: O_63  and  O_64
REMARK                            x       y       z     vdW  Elec       q    Type
REMARK                         _______ _______ _______ _____ _____    ______ ____
ROOT
ATOM      1  C   UNL     1       1.817  11.925  25.792  0.00  0.00    +0.000 C 
ENDROOT
TORSDOF 0
REMARK  Name = /web/media/ligands/5LNZ_ligand.pdb
REMARK  5 active torsions:
REMARK  status: ('A' for Active; 'I' for Inactive)
REMARK    1  A    between atoms: C_27  and  C_29
REMARK    2  A    between atoms: C_27  and  C_30
REMARK    3  A    between atoms: C_61  and  O_64
REMARK    4  A    between atoms: C_61  and  C_66
REMARK    5  A    between atoms: O_63  and  O_64
REMARK                            x       y       z     vdW  Elec       q    Type
REMARK                         _______ _______ _______ _____ _____    ______ ____
ROOT
ATOM      1  C   UNL     1       1.820  11.924  25.795  0.00  0.00    +0.000 C 
ENDROOT
TORSDOF 0
REMARK  Name = /web/media/ligands/5LNZ_ligand.pdb
REMARK  5 active torsions:
REMARK  status: ('A' for Active; 'I' for Inactive)
REMARK    1  A    between atoms: C_27  and  C_29
REMARK    2  A    between atoms: C_27  and  C_30
REMARK    3  A    between atoms: C_61  and  O_64
REMARK    4  A    between atoms: C_61  and  C_66
REMARK    5  A    between atoms: O_63  and  O_64
REMARK                            x       y       z     vdW  Elec       q    Type
REMARK                         _______ _______ _______ _____ _____    ______ ____
ROOT
ATOM      1  O   HOH     1       3.043  11.102  23.985  0.00  0.00    +0.000 OA
ENDROOT
TORSDOF 0
REMARK  Name = /web/media/ligands/5LNZ_ligand.pdb
REMARK  5 active torsions:
REMARK  status: ('A' for Active; 'I' for Inactive)
REMARK    1  A    between atoms: C_27  and  C_29
REMARK    2  A    between atoms: C_27  and  C_30
REMARK    3  A    between atoms: C_61  and  O_64
REMARK    4  A    between atoms: C_61  and  C_66
REMARK    5  A    between atoms: O_63  and  O_64
REMARK                            x       y       z     vdW  Elec       q    Type
REMARK                         _______ _______ _______ _____ _____    ______ ____
ROOT
ATOM      1  N   UNL     1      -0.996  12.833  27.717  0.00  0.00    +0.000 NA
ENDROOT
TORSDOF 0
REMARK  Name = /web/media/ligands/5LNZ_ligand.pdb
REMARK  5 active torsions:
REMARK  status: ('A' for Active; 'I' for Inactive)
REMARK    1  A    between atoms: C_27  and  C_29
REMARK    2  A    between atoms: C_27  and  C_30
REMARK    3  A    between atoms: C_61  and  O_64
REMARK    4  A    between atoms: C_61  and  C_66
REMARK    5  A    between atoms: O_63  and  O_64
REMARK                            x       y       z     vdW  Elec       q    Type
REMARK                         _______ _______ _______ _____ _____    ______ ____
ROOT
ATOM      1  N   UNL     1      -0.987  12.828  27.728  0.00  0.00    +0.000 NA
ATOM      2  N   UNL     1       0.263  12.756  27.603  0.00  0.00    +0.000 NA
ENDROOT
TORSDOF 0
REMARK  Name = /web/media/ligands/5LNZ_ligand.pdb
REMARK  5 active torsions:
REMARK  status: ('A' for Active; 'I' for Inactive)
REMARK    1  A    between atoms: C_27  and  C_29
REMARK    2  A    between atoms: C_27  and  C_30
REMARK    3  A    between atoms: C_61  and  O_64
REMARK    4  A    between atoms: C_61  and  C_66
REMARK    5  A    between atoms: O_63  and  O_64
REMARK                            x       y       z     vdW  Elec       q    Type
REMARK                         _______ _______ _______ _____ _____    ______ ____
ROOT
ATOM      1  N   UNL     1       0.270  12.750  27.610  0.00  0.00    +0.000 NA
ENDROOT
TORSDOF 0
REMARK  Name = /web/media/ligands/5LNZ_ligand.pdb
REMARK  5 active torsions:
REMARK  status: ('A' for Active; 'I' for Inactive)
REMARK    1  A    between atoms: C_27  and  C_29
REMARK    2  A    between atoms: C_27  and  C_30
REMARK    3  A    between atoms: C_61  and  O_64
REMARK    4  A    between atoms: C_61  and  C_66
REMARK    5  A    between atoms: O_63  and  O_64
REMARK                            x       y       z     vdW  Elec       q    Type
REMARK                         _______ _______ _______ _____ _____    ______ ____
ROOT
ATOM      1  O   HOH     1      -3.650  11.366  26.690  0.00  0.00    +0.000 OA
ENDROOT
TORSDOF 0
REMARK  Name = /web/media/ligands/5LNZ_ligand.pdb
REMARK  5 active torsions:
REMARK  status: ('A' for Active; 'I' for Inactive)
REMARK    1  A    between atoms: C_27  and  C_29
REMARK    2  A    between atoms: C_27  and  C_30
REMARK    3  A    between atoms: C_61  and  O_64
REMARK    4  A    between atoms: C_61  and  C_66
REMARK    5  A    between atoms: O_63  and  O_64
REMARK                            x       y       z     vdW  Elec       q    Type
REMARK                         _______ _______ _______ _____ _____    ______ ____
ROOT
ATOM      1  C   UNL     1      -3.559   5.751  28.406  0.00  0.00    +0.182 C 
ENDROOT
BRANCH   1   3
ATOM      2  C   UNL     1      -2.505   6.162  27.370  0.00  0.00    +0.003 C 
ATOM      3  C   UNL     1      -3.267   5.418  28.306  0.00  0.00    +0.036 C 
ENDBRANCH   1   3
BRANCH   1   4
ATOM      4  O   UNL     1      -4.632   5.640  28.142  0.00  0.00    -0.220 OA
BRANCH   4   5
ATOM      5  O   UNL     1      -4.566   5.002  27.778  0.00  0.00    -0.218 OA
ATOM      6  C   UNL     1      -5.113   5.383  26.839  0.00  0.00    +0.217 C 
ENDBRANCH   4   5
ENDBRANCH   1   4
TORSDOF 3
REMARK  Name = /web/media/ligands/5LNZ_ligand.pdb
REMARK  5 active torsions:
REMARK  status: ('A' for Active; 'I' for Inactive)
REMARK    1  A    between atoms: C_27  and  C_29
REMARK    2  A    between atoms: C_27  and  C_30
REMARK    3  A    between atoms: C_61  and  O_64
REMARK    4  A    between atoms: C_61  and  C_66
REMARK    5  A    between atoms: O_63  and  O_64
REMARK                            x       y       z     vdW  Elec       q    Type
REMARK                         _______ _______ _______ _____ _____    ______ ____
ROOT
ATOM      1  C   UNL     1      -4.302   6.012  25.652  0.00  0.00    +0.000 C 
ENDROOT
TORSDOF 0
REMARK  Name = /web/media/ligands/5LNZ_ligand.pdb
REMARK  5 active torsions:
REMARK  status: ('A' for Active; 'I' for Inactive)
REMARK    1  A    between atoms: C_27  and  C_29
REMARK    2  A    between atoms: C_27  and  C_30
REMARK    3  A    between atoms: C_61  and  O_64
REMARK    4  A    between atoms: C_61  and  C_66
REMARK    5  A    between atoms: O_63  and  O_64
REMARK                            x       y       z     vdW  Elec       q    Type
REMARK                         _______ _______ _______ _____ _____    ______ ____
ROOT
ATOM      1  C   UNL     1      -2.543   6.472  27.484  0.00  0.00    +0.000 C 
ENDROOT
TORSDOF 0
