@<TRIPOS>MOLECULE
/web/media/ligands/5LNZ_ligand.pdb
 68 26 0 0 0
SMALL
GASTEIGER

@<TRIPOS>ATOM
      1 C           0.7340   10.4480   22.5250 C.3     1  UNL1        0.0000
      2 C           0.7350   10.4560   22.5300 C.2     2  UNL2        0.2794
      3 C           1.8550   11.3710   24.5390 C.3     2  UNL2        0.0000
      4 C           1.8570   11.3740   24.5400 C.3     4  UNL4        0.2175
      5 C           0.6150   12.2210   26.4010 C.3     3  UNL3        0.0000
      6 C           0.6200   12.2170   26.4060 C.3     4  UNL4        0.0000
      7 C          -0.5650   11.9350   25.7150 C.3     7  UNL7        0.0000
      8 C          -0.5620   11.9320   25.7230 C.3     5  UNL5        0.0000
      9 C          -1.6010   12.3670   26.6500 C.3     6  UNL6        0.0000
     10 C          -1.5920   12.3560   26.6660 C.3     7  UNL7        0.0000
     11 C          -3.0470   12.3160   26.3450 C.3     8  UNL8        0.0000
     12 C          -3.0380   12.3130   26.3570 C.2    12  UNL12       0.2794
     13 C          -0.6590    8.6120   23.3010 C.3    13  UNL13       0.0000
     14 C          -0.6620    8.6150   23.2970 C.3    14  UNL14       0.0000
     15 C          -0.9130    7.5010   25.4190 C.3    15  UNL15       0.0000
     16 C          -0.8890    7.4750   25.3930 C.1    16  UNL16       0.0000
     17 C          -2.8000    7.7740   23.9950 C.1    17  UNL17       0.0000
     18 C          -2.7890    7.7260   23.9810 C.3     9  UNL9        0.0000
     19 C          -0.1210    8.1360   24.4830 C.1    16  UNL16       0.0000
     20 C          -0.1110    8.1340   24.4680 C.3    13  UNL13       0.0000
     21 C           0.1890    8.6140   21.0350 C.3    10  UNL10       0.0000
     22 C           0.1850    8.6270   21.0410 C.3    20  UNL20       0.1297
     23 N          -3.1090    6.6740   26.1480 N.3    21  UNL21      -0.1314
     24 N          -3.0380    6.5670   26.1200 N.3    22  UNL22      -0.1297
     25 C          -5.0190   13.4380   25.3480 C.3    11  UNL11       0.0000
     26 C          -5.0050   13.4530   25.3730 C.3    24  UNL24       0.1297
     27 C          -5.3580   13.7200   23.8950 C.3    12  UNL12       0.0000
     28 C          -5.3000   13.5620   23.8900 C.3    13  UNL13       0.0000
     29 C          -6.8220   13.2890   23.7460 C.3    12  UNL12       0.0000
     30 C          -4.8550   14.9290   23.4320 C.3    12  UNL12       0.0000
     31 C          -2.8210   14.5340   25.2620 C.3    26  UNL26       0.1297
     32 C          -2.7760   14.5540   25.3240 C.3    14  UNL14       0.0000
     33 C          -7.4390   13.9460   22.5270 C.3    12  UNL12       0.0000
     34 C          -5.8460   15.9460   23.9420 C.3    12  UNL12       0.0000
     35 N           0.1030    9.2610   22.3220 N.3    20  UNL20      -0.1297
     36 N           0.0970    9.2770   22.3270 N.3    15  UNL15       0.0000
     37 O           1.3940   10.9680   21.6780 O.2     2  UNL2       -0.2794
     38 O           1.3930   10.9720   21.6790 O.3    16  UNL16       0.0000
     39 C           0.6590   11.0820   23.8540 C.3    17  UNL17       0.0000
     40 C           0.6600   11.0860   23.8590 C.3    30  UNL30       0.0000
     41 C          -0.5550   11.3760   24.4520 C.3    30  UNL30       0.0000
     42 C          -0.5540   11.3750   24.4590 C.3     7  UNL7        0.0000
     43 C           1.8170   11.9250   25.7920 C.3    18  UNL18       0.0000
     44 C           1.8200   11.9240   25.7950 C.3    19  UNL19       0.0000
     45 O           3.0430   11.0980   23.9880 O.3     4  UNL4       -0.2175
     46 O           3.0430   11.1020   23.9850 O.3    20  UNL20       0.0000
     47 N          -0.9960   12.8330   27.7170 N.3    21  UNL21       0.0000
     48 N          -0.9870   12.8280   27.7280 N.1    34  UNL34       0.0000
     49 N           0.2630   12.7560   27.6030 N.1    34  UNL34       0.0000
     50 N           0.2700   12.7500   27.6100 N.3    22  UNL22       0.0000
     51 O          -3.6510   11.3710   26.6990 O.2    12  UNL12      -0.2794
     52 O          -3.6500   11.3660   26.6900 O.3    23  HOH23       0.0000
     53 C          -2.0070    8.4130   23.0730 C.3    14  UNL14       0.0000
     54 C          -2.0070    8.3910   23.0670 C.1    17  UNL17       0.0000
     55 C          -2.2720    7.3030   25.1930 C.3    22  UNL22       0.1297
     56 C          -2.2460    7.2610   25.1740 C.3    15  UNL15       0.0000
     57 N          -3.6040   13.3640   25.6620 N.3    24  UNL24      -0.1297
     58 N          -3.5850   13.3780   25.6910 N.3    26  UNL26      -0.1297
     59 C          -2.5050    6.1620   27.3700 C.3    24  UNL24       0.0028
     60 C          -4.4340    6.2910   25.8120 C.3    21  UNL21       0.1094
     61 C          -3.5590    5.7510   28.4060 C.3    24  UNL24       0.1821
     62 C          -5.1130    5.3830   26.8390 C.3    24  UNL24       0.2175
     63 O          -4.5660    5.0020   27.7780 O.3    24  UNL24      -0.2176
     64 O          -4.6320    5.6400   28.1420 O.3    24  UNL24      -0.2203
     65 C          -5.2640    5.7220   26.7930 C.3    21  UNL21       0.0220
     66 C          -3.2670    5.4180   28.3060 C.3    24  UNL24       0.0355
     67 C          -4.3020    6.0120   25.6520 C.3    25  UNL25       0.0000
     68 C          -2.5430    6.4720   27.4840 C.3    26  UNL26       0.0000
@<TRIPOS>BOND
     1    12    51    2
     2    13    20    1
     3    19    16    3
     4    22    35    1
     5    26    57    1
     6    29    27    1
     7    30    27    1
     8    30    34    1
     9    31    58    1
    10    33    29    1
    11    37     2    2
    12    40    41    1
    13    42     7    1
    14    45     4    1
    15    49    48    3
    16    53    14    1
    17    54    17    3
    18    55    24    1
    19    56    15    1
    20    59    66    1
    21    60    23    1
    22    60    65    1
    23    62    63    1
    24    63    64    1
    25    64    61    1
    26    66    61    1
