@<TRIPOS>MOLECULE
/web/media/ligands/5LO5_ligand.pdb
 30 33 0 0 0
SMALL
GASTEIGER

@<TRIPOS>ATOM
      1 C           0.5100   33.7950   25.3510 C.ar    1  UNL1        0.0161
      2 C          -0.6870   33.4170   26.0550 C.ar    1  UNL1        0.0843
      3 C           1.6270   33.4200   26.2310 C.ar    1  UNL1       -0.0016
      4 C           1.0540   32.8550   27.3720 C.ar    1  UNL1        0.0946
      5 C           3.1190   33.6010   25.9780 C.3     1  UNL1        0.0280
      6 C          -0.8540   34.6200   23.4870 C.ar    1  UNL1        0.1073
      7 C          -2.0390   34.2480   24.2000 C.ar    1  UNL1        0.2067
      8 C           3.5660   32.9680   24.6450 C.3     1  UNL1        0.0062
      9 C          -0.9630   35.2150   22.1870 C.1     1  UNL1        0.1037
     10 C           3.5350   31.4380   24.7380 C.3     1  UNL1        0.0177
     11 C           4.2280   30.8200   23.5120 C.3     1  UNL1        0.0722
     12 C           6.4120   30.3520   24.5190 C.3     1  UNL1        0.0938
     13 C           7.7130   31.3930   22.1280 C.3     1  UNL1        0.1081
     14 C           7.8740   30.8140   24.5420 C.3     1  UNL1        0.1081
     15 C          10.6490   31.1530   24.2650 C.ar    1  UNL1        0.0152
     16 C          11.9530   30.7140   21.7920 C.ar    1  UNL1        0.0115
     17 C           0.4180   34.3960   24.0660 C.ar    1  UNL1        0.0147
     18 N          -0.3110   32.8600   27.2560 N.ar    1  UNL1       -0.2441
     19 C          -1.9520   33.6540   25.4670 C.ar    1  UNL1        0.0618
     20 O          -3.2550   34.4690   23.6440 O.3     1  UNL1       -0.2858
     21 N          -1.0640   35.6660   21.1500 N.1     1  UNL1       -0.1907
     22 N           5.6700   31.1410   23.5010 N.3     1  UNL1       -0.2698
     23 C           6.2370   30.9450   22.1400 C.3     1  UNL1        0.0938
     24 N           8.4620   30.6430   23.1780 N.pl3   1  UNL1       -0.3046
     25 C           9.8800   30.7960   23.1100 C.ar    1  UNL1        0.0480
     26 C          10.5600   30.5800   21.8710 C.ar    1  UNL1        0.0152
     27 C          12.0390   31.2850   24.1840 C.ar    1  UNL1        0.0115
     28 C          12.7040   31.0650   22.9480 C.ar    1  UNL1        0.0685
     29 C          14.1280   31.1880   22.8760 C.1     1  UNL1        0.1004
     30 N          15.2590   31.2660   22.8340 N.1     1  UNL1       -0.1908
@<TRIPOS>BOND
     1     1     2   ar
     2     1     3   ar
     3     2    18   ar
     4     3     4   ar
     5     5     3    1
     6     6    17   ar
     7     6     7   ar
     8     7    19   ar
     9     8    10    1
    10     8     5    1
    11     9     6    1
    12    11    10    1
    13    12    14    1
    14    13    23    1
    15    13    24    1
    16    16    26   ar
    17    16    28   ar
    18    17     1   ar
    19    18     4   ar
    20    19     2   ar
    21    20     7    1
    22    21     9    3
    23    22    11    1
    24    22    12    1
    25    23    22    1
    26    24    14    1
    27    25    24    1
    28    25    15   ar
    29    26    25   ar
    30    27    15   ar
    31    28    27   ar
    32    29    28    1
    33    30    29    3
