/web/media/ligands/5LO6_ligand.pdb
 OpenBabel04242009293D

 33 36  0  0  0  0  0  0  0  0999 V2000
    1.4890    8.3780   26.6840 C   0  0  0  0  0  0  0  0  0  0  0  0
    0.1340    8.7010   26.4590 C   0  0  0  0  0  0  0  0  0  0  0  0
   -0.4820    8.2820   25.2730 C   0  0  0  0  0  0  0  0  0  0  0  0
    2.2320    6.4010   23.4750 C   0  0  0  0  0  0  0  0  0  0  0  0
   -0.8320    8.7460   28.7150 C   0  0  0  0  0  0  0  0  0  0  0  0
   -1.2080   10.6330   27.1890 C   0  0  0  0  0  0  0  0  0  0  0  0
   -1.0620   11.3410   25.8850 C   0  0  0  0  0  0  0  0  0  0  0  0
    0.2120   11.6930   25.4110 C   0  0  0  0  0  0  0  0  0  0  0  0
   -2.0820   12.1730   23.8220 C   0  0  0  0  0  0  0  0  0  0  0  0
   -2.2020   11.5970   25.0750 C   0  0  0  0  0  0  0  0  0  0  0  0
    1.4780   12.7010   23.3410 C   0  0  0  0  0  0  0  0  0  0  0  0
    2.9260   12.6630   23.7760 C   0  0  0  0  0  0  0  0  0  0  0  0
    4.7330   14.0110   25.1720 C   0  0  0  0  0  0  0  0  0  0  0  0
    3.8660    3.8420   20.6660 C   0  0  0  0  0  0  0  0  0  0  0  0
    5.8230   13.7670   24.1080 C   0  0  0  0  0  0  0  0  0  0  0  0
    5.0240   15.4130   25.7290 C   0  0  0  0  0  0  0  0  0  0  0  0
    4.9090   13.0020   26.3260 C   0  0  0  0  0  0  0  0  0  0  0  0
    0.2300    7.5690   24.3260 C   0  0  0  0  0  0  0  0  0  0  0  0
    1.5640    7.2530   24.5400 C   0  0  0  0  0  0  0  0  0  0  0  0
    2.1930    7.6470   25.7320 C   0  0  0  0  0  0  0  0  0  0  0  0
   -0.6310    9.4090   27.4180 N   0  0  0  0  0  0  0  0  0  0  0  0
   -1.8630   11.1510   28.0730 O   0  0  0  0  0  0  0  0  0  0  0  0
   -3.4450   11.3380   25.5400 O   0  0  0  0  0  0  0  0  0  0  0  0
   -0.8160   12.4980   23.3250 C   0  0  0  0  0  0  0  0  0  0  0  0
    0.3340   12.2520   24.1280 C   0  0  0  0  0  0  0  0  0  0  0  0
    1.0030   13.1440   22.2060 N   0  0  0  0  0  0  0  0  0  0  0  0
   -0.3890   13.0420   22.1370 N   0  0  0  0  0  0  0  0  0  0  0  0
    3.2810   13.9320   24.6000 C   0  0  0  0  0  0  0  0  0  0  0  0
    3.6850    6.7500   23.1160 C   0  0  0  0  0  0  0  0  0  0  0  0
    4.0790    5.9200   21.8810 C   0  0  0  0  0  0  0  0  0  0  0  0
    3.7910    4.4620   22.0000 N   0  0  0  0  0  0  0  0  0  0  0  0
    2.5100    4.0600   22.6300 C   0  0  0  0  0  0  0  0  0  0  0  0
    2.1690    4.9110   23.8610 C   0  0  0  0  0  0  0  0  0  0  0  0
  2  1  1  0  0  0  0
  2 21  1  0  0  0  0
  3  2  2  0  0  0  0
  4 33  1  0  0  0  0
  4 19  1  0  0  0  0
  6 21  1  0  0  0  0
  6 22  2  0  0  0  0
  7  6  1  0  0  0  0
  8  7  2  0  0  0  0
  9 10  2  0  0  0  0
 10 23  1  0  0  0  0
 10  7  1  0  0  0  0
 11 12  1  0  0  0  0
 11 25  2  0  0  0  0
 12 28  1  0  0  0  0
 13 16  1  0  0  0  0
 13 17  1  0  0  0  0
 14 31  1  0  0  0  0
 15 13  1  0  0  0  0
 18 19  2  0  0  0  0
 18  3  1  0  0  0  0
 19 20  1  0  0  0  0
 20  1  2  0  0  0  0
 21  5  1  0  0  0  0
 24  9  1  0  0  0  0
 24 25  1  0  0  0  0
 25  8  1  0  0  0  0
 26 11  1  0  0  0  0
 27 26  1  0  0  0  0
 27 24  2  0  0  0  0
 28 13  1  0  0  0  0
 29  4  1  0  0  0  0
 30 31  1  0  0  0  0
 30 29  1  0  0  0  0
 31 32  1  0  0  0  0
 32 33  1  0  0  0  0
M  END
>  <REMARK>
 800 SITE_DESCRIPTION: binding site for residue 70O A 301                 

>  <HET>
 70O  A 301      33                                                       

>  <HETNAM>
     70O 3-(3,3-DIMETHYLBUTYL)-~{N}-METHYL-~{N}-[4-(1-                    
   2 70O  METHYLPIPERIDIN-4-YL)PHENYL]-6-OXIDANYL-2~{H}-                  
   3 70O  INDAZOLE-5-CARBOXAMIDE                                          

>  <FORMUL>
   2  70O    C27 H36 N4 O2                                                

$$$$
