REMARK  Name = /web/media/ligands/5LO6_ligand.pdb
REMARK  6 active torsions:
REMARK  status: ('A' for Active; 'I' for Inactive)
REMARK    1  A    between atoms: C_2  and  N_21
REMARK    2  A    between atoms: C_4  and  C_19
REMARK    3  A    between atoms: C_6  and  C_7
REMARK    4  A    between atoms: C_11  and  C_12
REMARK    5  A    between atoms: C_12  and  C_28
REMARK    6  A    between atoms: C_13  and  C_28
REMARK                            x       y       z     vdW  Elec       q    Type
REMARK                         _______ _______ _______ _____ _____    ______ ____
ROOT
ATOM      1  N   UNL     1      -0.631   9.409  27.418  0.00  0.00    -0.253 N 
ATOM      2  C   UNL     1      -0.832   8.746  28.715  0.00  0.00    +0.120 C 
ATOM      3  C   UNL     1      -1.208  10.633  27.189  0.00  0.00    +0.256 C 
ATOM      4  O   UNL     1      -1.863  11.151  28.073  0.00  0.00    -0.269 OA
ENDROOT
BRANCH   3   5
ATOM      5  C   UNL     1      -1.062  11.341  25.885  0.00  0.00    +0.093 A 
ATOM      6  C   UNL     1      -2.202  11.597  25.075  0.00  0.00    +0.202 A 
ATOM      7  O   UNL     1      -3.445  11.338  25.540  0.00  0.00    -0.286 OA
ATOM      8  C   UNL     1      -2.082  12.173  23.822  0.00  0.00    +0.063 A 
ATOM      9  C   UNL     1      -0.816  12.498  23.325  0.00  0.00    +0.107 A 
ATOM     10  N   UNL     1      -0.389  13.042  22.137  0.00  0.00    -0.148 NA
ATOM     11  N   UNL     1       1.003  13.144  22.206  0.00  0.00    -0.152 NA
ATOM     12  C   UNL     1       1.478  12.701  23.341  0.00  0.00    +0.082 A 
ATOM     13  C   UNL     1       0.334  12.252  24.128  0.00  0.00    +0.035 A 
ATOM     14  C   UNL     1       0.212  11.693  25.411  0.00  0.00    +0.011 A 
BRANCH  12  15
ATOM     15  C   UNL     1       2.926  12.663  23.776  0.00  0.00    +0.048 C 
BRANCH  15  16
ATOM     16  C   UNL     1       3.281  13.932  24.600  0.00  0.00    +0.006 C 
BRANCH  16  17
ATOM     17  C   UNL     1       4.733  14.011  25.172  0.00  0.00    +0.000 C 
ATOM     18  C   UNL     1       5.823  13.767  24.108  0.00  0.00    +0.000 C 
ATOM     19  C   UNL     1       4.909  13.002  26.326  0.00  0.00    +0.000 C 
ATOM     20  C   UNL     1       5.024  15.413  25.729  0.00  0.00    +0.000 C 
ENDBRANCH  16  17
ENDBRANCH  15  16
ENDBRANCH  12  15
ENDBRANCH   3   5
BRANCH   1  26
ATOM     21  C   UNL     1       1.489   8.378  26.684  0.00  0.00    +0.015 A 
ATOM     22  C   UNL     1       2.193   7.647  25.732  0.00  0.00    -0.003 A 
ATOM     23  C   UNL     1       1.564   7.253  24.540  0.00  0.00    -0.022 A 
ATOM     24  C   UNL     1       0.230   7.569  24.326  0.00  0.00    -0.003 A 
ATOM     25  C   UNL     1      -0.482   8.282  25.273  0.00  0.00    +0.015 A 
ATOM     26  C   UNL     1       0.134   8.701  26.459  0.00  0.00    +0.054 A 
BRANCH  23  27
ATOM     27  C   UNL     1       2.232   6.401  23.475  0.00  0.00    +0.025 C 
ATOM     28  C   UNL     1       3.685   6.750  23.116  0.00  0.00    +0.022 C 
ATOM     29  C   UNL     1       4.079   5.920  21.881  0.00  0.00    +0.072 C 
ATOM     30  N   UNL     1       3.791   4.462  22.000  0.00  0.00    -0.271 NA
ATOM     31  C   UNL     1       2.510   4.060  22.630  0.00  0.00    +0.072 C 
ATOM     32  C   UNL     1       3.866   3.842  20.666  0.00  0.00    +0.090 C 
ATOM     33  C   UNL     1       2.169   4.911  23.861  0.00  0.00    +0.022 C 
ENDBRANCH  23  27
ENDBRANCH   1  26
TORSDOF 6
