REMARK  Name = /web/media/ligands/5LQ9_ligand.pdb
REMARK  5 active torsions:
REMARK  status: ('A' for Active; 'I' for Inactive)
REMARK    1  A    between atoms: C_15  and  C_16
REMARK    2  A    between atoms: C_17  and  C_23
REMARK    3  A    between atoms: C_20  and  N_33
REMARK    4  A    between atoms: C_21  and  N_35
REMARK    5  A    between atoms: C_28  and  N_35
REMARK                            x       y       z     vdW  Elec       q    Type
REMARK                         _______ _______ _______ _____ _____    ______ ____
ROOT
ATOM      1  C   UNL     1       6.897  14.115  25.539  0.00  0.00    +0.004 A 
ATOM      2  C   UNL     1       6.238  15.178  26.119  0.00  0.00    +0.000 A 
ATOM      3  C   UNL     1       4.871  15.324  26.112  0.00  0.00    +0.002 A 
ATOM      4  C   UNL     1       4.055  14.389  25.512  0.00  0.00    +0.019 A 
ATOM      5  C   UNL     1       4.701  13.314  24.935  0.00  0.00    +0.084 A 
ATOM      6  N   UNL     1       4.159  12.231  24.281  0.00  0.00    -0.230 N 
ATOM      7  N   UNL     1       5.111  11.373  23.867  0.00  0.00    -0.169 NA
ATOM      8  C   UNL     1       6.270  11.927  24.249  0.00  0.00    +0.081 A 
ATOM      9  C   UNL     1       7.537  11.223  23.939  0.00  0.00    +0.054 C 
ATOM     10  C   UNL     1       6.083  13.157  24.936  0.00  0.00    +0.033 A 
ENDROOT
BRANCH   1  17
ATOM     11  C   UNL     1      12.596  14.287  27.829  0.00  0.00    +0.000 A 
ATOM     12  C   UNL     1      13.246  14.087  26.627  0.00  0.00    +0.002 A 
ATOM     13  C   UNL     1      12.505  13.929  25.474  0.00  0.00    +0.019 A 
ATOM     14  C   UNL     1      11.121  13.975  25.484  0.00  0.00    +0.081 A 
ATOM     15  N   UNL     1      10.429  13.827  24.344  0.00  0.00    -0.244 NA
ATOM     16  C   UNL     1       9.093  13.882  24.423  0.00  0.00    +0.099 A 
ATOM     17  C   UNL     1       8.360  14.063  25.574  0.00  0.00    +0.019 A 
ATOM     18  C   UNL     1       9.098  14.225  26.738  0.00  0.00    +0.003 A 
ATOM     19  C   UNL     1      10.483  14.179  26.697  0.00  0.00    +0.018 A 
ATOM     20  C   UNL     1      11.218  14.331  27.856  0.00  0.00    +0.001 A 
ENDBRANCH   1  17
BRANCH   6  21
ATOM     21  C   UNL     1       2.791  11.878  24.378  0.00  0.00    +0.084 A 
ATOM     22  C   UNL     1       2.414  10.724  25.041  0.00  0.00    +0.035 A 
ATOM     23  C   UNL     1       1.072  10.440  25.261  0.00  0.00    +0.071 A 
ATOM     24  C   UNL     1       0.133  11.344  24.776  0.00  0.00    +0.072 A 
ATOM     25  C   UNL     1       0.502  12.487  24.097  0.00  0.00    +0.007 A 
ATOM     26  C   UNL     1       1.840  12.765  23.904  0.00  0.00    +0.019 A 
BRANCH  24  27
ATOM     27  C   UNL     1      -1.310  11.079  25.020  0.00  0.00    +0.285 C 
ATOM     28  N   UNL     1      -2.212  11.500  24.076  0.00  0.00    -0.084 NA
ATOM     29  O   UNL     1      -1.624  10.548  26.078  0.00  0.00    -0.267 OA
ENDBRANCH  24  27
BRANCH  23  30
ATOM     30  N   UNL     1       0.593   9.290  25.952  0.00  0.00    -0.239 NA
BRANCH  30  31
ATOM     31  C   UNL     1       1.508   8.232  26.401  0.00  0.00    +0.093 C 
ATOM     32  C   UNL     1       2.068   8.576  27.769  0.00  0.00    +0.024 C 
ATOM     33  C   UNL     1       2.861   7.423  28.357  0.00  0.00    +0.035 C 
ATOM     34  C   UNL     1       1.978   6.205  28.560  0.00  0.00    +0.152 C 
ATOM     35  O   UNL     1       2.796   5.122  29.011  0.00  0.00    -0.223 OA
ATOM     36  C   UNL     1       1.399   5.819  27.213  0.00  0.00    +0.035 C 
ATOM     37  C   UNL     1       0.647   6.971  26.555  0.00  0.00    +0.024 C 
ENDBRANCH  30  31
ENDBRANCH  23  30
ENDBRANCH   6  21
TORSDOF 5
