/web/media/ligands/5LQ9_ligand.pdb
 OpenBabel04242009293D

 37 42  0  0  1  0  0  0  0  0999 V2000
   12.5960   14.2870   27.8290 C   0  0  0  0  0  0  0  0  0  0  0  0
   13.2460   14.0870   26.6270 C   0  0  0  0  0  0  0  0  0  0  0  0
    4.8710   15.3240   26.1120 C   0  0  0  0  0  0  0  0  0  0  0  0
   11.2180   14.3310   27.8560 C   0  0  0  0  0  0  0  0  0  0  0  0
    6.2380   15.1780   26.1190 C   0  0  0  0  0  0  0  0  0  0  0  0
    0.5020   12.4870   24.0970 C   0  0  0  0  0  0  0  0  0  0  0  0
   12.5050   13.9290   25.4740 C   0  0  0  0  0  0  0  0  0  0  0  0
    4.0550   14.3890   25.5120 C   0  0  0  0  0  0  0  0  0  0  0  0
    1.8400   12.7650   23.9040 C   0  0  0  0  0  0  0  0  0  0  0  0
    9.0980   14.2250   26.7380 C   0  0  0  0  0  0  0  0  0  0  0  0
    2.4140   10.7240   25.0410 C   0  0  0  0  0  0  0  0  0  0  0  0
    9.0930   13.8820   24.4230 C   0  0  0  0  0  0  0  0  0  0  0  0
   10.4830   14.1790   26.6970 C   0  0  0  0  0  0  0  0  0  0  0  0
    6.0830   13.1570   24.9360 C   0  0  0  0  0  0  0  0  0  0  0  0
    6.8970   14.1150   25.5390 C   0  0  0  0  0  0  0  0  0  0  0  0
    8.3600   14.0630   25.5740 C   0  0  0  0  0  0  0  0  0  0  0  0
    0.1330   11.3440   24.7760 C   0  0  0  0  0  0  0  0  0  0  0  0
   11.1210   13.9750   25.4840 C   0  0  0  0  0  0  0  0  0  0  0  0
    4.7010   13.3140   24.9350 C   0  0  0  0  0  0  0  0  0  0  0  0
    2.7910   11.8780   24.3780 C   0  0  0  0  0  0  0  0  0  0  0  0
    1.0720   10.4400   25.2610 C   0  0  0  0  0  0  0  0  0  0  0  0
    6.2700   11.9270   24.2490 C   0  0  0  0  0  0  0  0  0  0  0  0
   -1.3100   11.0790   25.0200 C   0  0  0  0  0  0  0  0  0  0  0  0
    2.0680    8.5760   27.7690 C   0  0  0  0  0  0  0  0  0  0  0  0
    0.6470    6.9710   26.5550 C   0  0  0  0  0  0  0  0  0  0  0  0
    2.8610    7.4230   28.3570 C   0  0  0  0  0  0  0  0  0  0  0  0
    1.3990    5.8190   27.2130 C   0  0  0  0  0  0  0  0  0  0  0  0
    1.5080    8.2320   26.4010 C   0  0  1  0  0  0  0  0  0  0  0  0
    1.9780    6.2050   28.5600 C   0  0  1  0  0  0  0  0  0  0  0  0
    7.5370   11.2230   23.9390 C   0  0  0  0  0  0  0  0  0  0  0  0
   10.4290   13.8270   24.3440 N   0  0  0  0  0  0  0  0  0  0  0  0
    5.1110   11.3730   23.8670 N   0  0  0  0  0  0  0  0  0  0  0  0
    4.1590   12.2310   24.2810 N   0  0  0  0  0  0  0  0  0  0  0  0
   -2.2120   11.5000   24.0760 N   0  0  0  0  0  0  0  0  0  0  0  0
    0.5930    9.2900   25.9520 N   0  0  0  0  0  0  0  0  0  0  0  0
   -1.6240   10.5480   26.0780 O   0  0  0  0  0  0  0  0  0  0  0  0
    2.7960    5.1220   29.0110 O   0  0  0  0  0  0  0  0  0  0  0  0
  1  4  1  0  0  0  0
  2  1  2  0  0  0  0
  3  5  1  0  0  0  0
  6 17  1  0  0  0  0
  7 18  2  0  0  0  0
  7  2  1  0  0  0  0
  8  3  2  0  0  0  0
  9  6  2  0  0  0  0
  9 20  1  0  0  0  0
 11 21  1  0  0  0  0
 12 16  1  0  0  0  0
 13 10  1  0  0  0  0
 13  4  2  0  0  0  0
 14 15  1  0  0  0  0
 15 16  1  0  0  0  0
 15  5  2  0  0  0  0
 16 10  2  0  0  0  0
 17 23  1  0  0  0  0
 17 21  2  0  0  0  0
 18 13  1  0  0  0  0
 19 14  2  0  0  0  0
 19  8  1  0  0  0  0
 20 11  2  0  0  0  0
 21 35  1  0  0  0  0
 22 14  1  0  0  0  0
 23 36  2  0  0  0  0
 24 26  1  0  0  0  0
 25 27  1  0  0  0  0
 26 29  1  0  0  0  0
 27 29  1  0  0  0  0
 28 35  1  1  0  0  0
 28 25  1  0  0  0  0
 28 24  1  0  0  0  0
 29 37  1  6  0  0  0
 30 22  1  0  0  0  0
 31 12  2  0  0  0  0
 31 18  1  0  0  0  0
 32 22  2  0  0  0  0
 32 33  1  0  0  0  0
 33 20  1  0  0  0  0
 33 19  1  0  0  0  0
 34 23  1  0  0  0  0
M  END
>  <REMARK>
 800 SITE_DESCRIPTION: binding site for residue 72K A 301                 

>  <HET>
 72K  A 301      37                                                       

>  <HETNAM>
     72K 4-(3-METHYL-4-QUINOLIN-3-YL-INDAZOL-1-YL)-2-[(4-                 
   2 72K  OXIDANYLCYCLOHEXYL)AMINO]BENZAMIDE                              

>  <FORMUL>
   2  72K    C30 H29 N5 O2                                                

$$$$
