REMARK  Name = /web/media/ligands/5LR1_ligand.pdb
REMARK  2 active torsions:
REMARK  status: ('A' for Active; 'I' for Inactive)
REMARK    1  A    between atoms: C_7  and  C_8
REMARK    2  A    between atoms: C_7  and  N_15
REMARK                            x       y       z     vdW  Elec       q    Type
REMARK                         _______ _______ _______ _____ _____    ______ ____
ROOT
ATOM      1  C   UNL     1      -1.350  11.276  24.703  0.00  0.00    +0.480 C 
ATOM      2  N   UNL     1      -2.384  11.718  23.964  0.00  0.00    +0.147 NA
ATOM      3  N   UNL     1      -0.109  11.422  24.178  0.00  0.00    -0.017 NA
ATOM      4  C   UNL     1       0.860  10.848  24.917  0.00  0.00    +0.213 A 
ATOM      5  N   UNL     1       2.197  10.833  24.608  0.00  0.00    -0.294 N 
ATOM      6  C   UNL     1       2.855  10.108  25.590  0.00  0.00    +0.078 A 
ATOM      7  C   UNL     1       1.978   9.679  26.522  0.00  0.00    +0.023 A 
ATOM      8  C   UNL     1       0.684  10.157  26.114  0.00  0.00    +0.083 A 
ATOM      9  C   UNL     1      -0.627  10.147  26.549  0.00  0.00    +0.286 C 
ATOM     10 CL   UNL     1      -1.003   9.421  28.075  0.00  0.00    -0.064 Cl
ATOM     11  N   UNL     1      -1.643  10.672  25.888  0.00  0.00    -0.075 NA
ENDROOT
BRANCH   5  12
ATOM     12  C   UNL     1       2.850  11.516  23.481  0.00  0.00    +0.154 C 
BRANCH  12  13
ATOM     13  C   UNL     1       3.918  12.460  23.990  0.00  0.00    +0.079 A 
ATOM     14  N   UNL     1       5.172  11.982  23.878  0.00  0.00    -0.247 NA
ATOM     15  C   UNL     1       6.177  12.766  24.299  0.00  0.00    +0.095 A 
ATOM     16  C   UNL     1       6.014  14.023  24.872  0.00  0.00    +0.008 A 
ATOM     17  C   UNL     1       7.186  14.861  25.309  0.00  0.00    +0.034 C 
ATOM     18  C   UNL     1       4.689  14.454  24.978  0.00  0.00    +0.052 A 
ATOM     19 CL   UNL     1       4.420  16.015  25.695  0.00  0.00    -0.083 Cl
ATOM     20  C   UNL     1       3.599  13.705  24.544  0.00  0.00    +0.004 A 
ATOM     21  C   UNL     1       2.182  14.233  24.588  0.00  0.00    +0.033 C 
ENDBRANCH  12  13
ENDBRANCH   5  12
TORSDOF 2
