@<TRIPOS>MOLECULE
/web/media/ligands/5LR1_ligand.pdb
 21 23 0 0 0
SMALL
GASTEIGER

@<TRIPOS>ATOM
      1 C          -1.3500   11.2760   24.7030 C.cat   1  UNL1        0.4801
      2 C           1.9780    9.6790   26.5220 C.ar    1  UNL1        0.0234
      3 C           0.6840   10.1570   26.1140 C.ar    1  UNL1        0.0833
      4 N          -1.6430   10.6720   25.8880 N.2     1  UNL1       -0.0748
      5 C           0.8600   10.8480   24.9170 C.ar    1  UNL1        0.2130
      6 C           2.8550   10.1080   25.5900 C.ar    1  UNL1        0.0783
      7 C           2.8500   11.5160   23.4810 C.3     1  UNL1        0.1540
      8 C           3.9180   12.4600   23.9900 C.ar    1  UNL1        0.0787
      9 C           3.5990   13.7050   24.5440 C.ar    1  UNL1        0.0039
     10 C           4.6890   14.4540   24.9780 C.ar    1  UNL1        0.0524
     11 C          -0.6270   10.1470   26.5490 C.3     1  UNL1        0.2856
     12 CL         -1.0030    9.4210   28.0750 Cl      1  UNL1       -0.0638
     13 N          -0.1090   11.4220   24.1780 N.pl3   1  UNL1       -0.0169
     14 N          -2.3840   11.7180   23.9640 N.pl3   1  UNL1        0.1472
     15 N           2.1970   10.8330   24.6080 N.ar    1  UNL1       -0.2941
     16 C           6.0140   14.0230   24.8720 C.ar    1  UNL1        0.0076
     17 C           6.1770   12.7660   24.2990 C.ar    1  UNL1        0.0950
     18 N           5.1720   11.9820   23.8780 N.ar    1  UNL1       -0.2468
     19 CL          4.4200   16.0150   25.6950 Cl      1  UNL1       -0.0828
     20 C           7.1860   14.8610   25.3090 C.3     1  UNL1        0.0335
     21 C           2.1820   14.2330   24.5880 C.3     1  UNL1        0.0332
@<TRIPOS>BOND
     1     1     4    2
     2     3     2   ar
     3     3    11    1
     4     4    11    1
     5     5     3   ar
     6     6     2   ar
     7     7     8    1
     8     7    15    1
     9     8     9   ar
    10     9    21    1
    11     9    10   ar
    12    10    19    1
    13    11    12    1
    14    13     1    1
    15    13     5    1
    16    14     1    1
    17    15     5   ar
    18    15     6   ar
    19    16    10   ar
    20    16    20    1
    21    17    16   ar
    22    18     8   ar
    23    18    17   ar
