/web/media/ligands/5LR7_ligand.pdb
 OpenBabel04242009293D

 35 41  0  0  1  0  0  0  0  0999 V2000
   32.0880   24.7720   11.0030 C   0  0  1  0  0  0  0  0  0  0  0  0
   35.1450   23.1190   12.0800 C   0  0  0  0  0  0  0  0  0  0  0  0
   33.7890   23.0550   12.0600 C   0  0  0  0  0  0  0  0  0  0  0  0
   33.3320   24.2570   11.4230 C   0  0  0  0  0  0  0  0  0  0  0  0
   34.4820   25.0040   11.0870 C   0  0  0  0  0  0  0  0  0  0  0  0
   30.8230   24.0660   11.3860 C   0  0  0  0  0  0  0  0  0  0  0  0
   34.4590   26.1770   10.4190 N   0  0  0  0  0  0  0  0  0  0  0  0
   27.3790   23.2860   10.2290 C   0  0  0  0  0  0  0  0  0  0  0  0
   24.9860   23.5850   10.1990 C   0  0  0  0  0  0  0  0  0  0  0  0
   26.1530   23.1140    9.6020 C   0  0  0  0  0  0  0  0  0  0  0  0
   32.0610   25.9670   10.2730 C   0  0  0  0  0  0  0  0  0  0  0  0
   33.2560   26.6220   10.0150 C   0  0  0  0  0  0  0  0  0  0  0  0
   35.5700   24.2920   11.4960 N   0  0  0  0  0  0  0  0  0  0  0  0
   29.7480   24.8050   11.6980 N   0  0  0  0  0  0  0  0  0  0  0  0
   30.8040   22.8460   11.4780 O   0  0  0  0  0  0  0  0  0  0  0  0
   25.0370   24.2360   11.4250 C   0  0  0  0  0  0  0  0  0  0  0  0
   26.2690   24.4190   12.0610 C   0  0  0  0  0  0  0  0  0  0  0  0
   27.4400   23.9310   11.4630 C   0  0  0  0  0  0  0  0  0  0  0  0
   28.5970   24.1790   12.3600 C   0  0  2  0  0  0  0  0  0  0  0  0
   26.6640   25.1160   13.3110 C   0  0  0  0  0  0  0  0  0  0  0  0
   28.0560   24.9770   13.4680 C   0  0  0  0  0  0  0  0  0  0  0  0
   28.7150   25.5630   14.5470 C   0  0  0  0  0  0  0  0  0  0  0  0
   28.0060   26.3010   15.4790 C   0  0  0  0  0  0  0  0  0  0  0  0
   26.6380   26.4720   15.3380 C   0  0  0  0  0  0  0  0  0  0  0  0
   25.9620   25.8770   14.2670 C   0  0  0  0  0  0  0  0  0  0  0  0
   24.5120   26.1110   14.2190 C   0  0  0  0  0  0  0  0  0  0  0  0
   23.9480   27.3330   14.4230 N   0  0  0  0  0  0  0  0  0  0  0  0
   23.6070   25.1510   14.0610 N   0  0  0  0  0  0  0  0  0  0  0  0
   22.3790   25.7900   14.1930 C   0  0  0  0  0  0  0  0  0  0  0  0
   22.5790   27.1510   14.4200 C   0  0  0  0  0  0  0  0  0  0  0  0
   21.5170   28.0330   14.5990 C   0  0  0  0  0  0  0  0  0  0  0  0
   20.2230   27.5260   14.5640 C   0  0  0  0  0  0  0  0  0  0  0  0
   20.0520   26.1690   14.3390 C   0  0  0  0  0  0  0  0  0  0  0  0
   21.0850   25.2790   14.1420 C   0  0  0  0  0  0  0  0  0  0  0  0
   18.7960   25.6680   14.3730 F   0  0  0  0  0  0  0  0  0  0  0  0
  1  6  1  1  0  0  0
  1  4  1  0  0  0  0
  3  2  1  0  0  0  0
  4  3  2  0  0  0  0
  5  4  1  0  0  0  0
  5 13  1  0  0  0  0
  6 15  2  0  0  0  0
  6 14  1  0  0  0  0
  7  5  2  0  0  0  0
  8 18  2  0  0  0  0
  9 16  1  0  0  0  0
 10  9  2  0  0  0  0
 10  8  1  0  0  0  0
 11  1  1  0  0  0  0
 12 11  2  0  0  0  0
 12  7  1  0  0  0  0
 13  2  2  0  0  0  0
 16 17  2  0  0  0  0
 17 20  1  0  0  0  0
 18 17  1  0  0  0  0
 18 19  1  0  0  0  0
 19 14  1  6  0  0  0
 19 21  1  0  0  0  0
 20 21  2  0  0  0  0
 20 25  1  0  0  0  0
 21 22  1  0  0  0  0
 22 23  2  0  0  0  0
 24 23  1  0  0  0  0
 25 24  2  0  0  0  0
 26 25  1  0  0  0  0
 26 27  2  0  0  0  0
 28 29  1  0  0  0  0
 28 26  1  0  0  0  0
 29 30  1  0  0  0  0
 30 27  1  0  0  0  0
 30 31  2  0  0  0  0
 32 31  1  0  0  0  0
 33 35  1  0  0  0  0
 33 32  2  0  0  0  0
 34 29  2  0  0  0  0
 34 33  1  0  0  0  0
M  END
>  <REMARK>
 800 SITE_DESCRIPTION: binding site for residue 73J A 4000                

>  <HET>
 73J  A4000      35                                                       

>  <HETNAM>
     73J ~{N}-[(9~{R})-4-(5-FLUORANYL-1~{H}-BENZIMIDAZOL-2-YL)-           
   2 73J  9~{H}-FLUOREN-9-YL]-1~{H}-PYRROLO[2,3-B]PYRIDINE-4-             
   3 73J  CARBOXAMIDE                                                     

>  <FORMUL>
   2  73J    C28 H18 F N5 O                                               

$$$$
