@<TRIPOS>MOLECULE
/web/media/ligands/5LRZ_ligand.pdb
 36 42 0 0 0
SMALL
GASTEIGER

@<TRIPOS>ATOM
      1 C           7.7120   11.1040   24.3930 C.ar    1  UNL1       -0.0003
      2 C           6.4730   11.7370   24.5270 C.ar    1  UNL1       -0.0023
      3 C           5.3070   11.0810   24.1130 C.ar    1  UNL1        0.0016
      4 C           4.1450   11.9530   24.3340 C.3     1  UNL1        0.1400
      5 C           6.0740   13.0480   25.0850 C.ar    1  UNL1       -0.0022
      6 C           4.6810   13.1500   24.9880 C.ar    1  UNL1        0.0016
      7 C           4.0150   14.2770   25.4620 C.ar    1  UNL1       -0.0023
      8 C           4.7250   15.3060   26.0500 C.ar    1  UNL1       -0.0003
      9 C           6.1020   15.2270   26.1570 C.ar    1  UNL1        0.0000
     10 C           6.7970   14.1200   25.6640 C.ar    1  UNL1        0.0012
     11 C           8.2870   14.1600   25.7090 C.ar    1  UNL1        0.0192
     12 C           5.3790    9.7910   23.5900 C.ar    1  UNL1       -0.0023
     13 C           7.7720    9.8160   23.8740 C.ar    1  UNL1       -0.0000
     14 C           6.6090    9.1590   23.4830 C.ar    1  UNL1       -0.0003
     15 N           3.0300   11.3360   25.0670 N.am    1  UNL1       -0.1943
     16 C           0.7280    9.7560   26.4700 C.ar    1  UNL1        0.0597
     17 C          -0.4630    9.6960   27.1780 C.ar    1  UNL1        0.1075
     18 N          -1.5960   10.2630   26.7360 N.ar    1  UNL1       -0.2232
     19 C           0.7800   10.4600   25.2480 C.ar    1  UNL1        0.0834
     20 C          -0.3760   11.0140   24.7550 C.ar    1  UNL1        0.1237
     21 C          -1.5180   10.8560   25.5290 C.ar    1  UNL1        0.1820
     22 N          -2.5480   11.3120   24.7630 N.ar    1  UNL1       -0.2033
     23 C          -2.0020   11.7410   23.6010 C.ar    1  UNL1        0.2004
     24 N          -0.6930   11.6080   23.5450 N.ar    1  UNL1       -0.2207
     25 C           2.0530   10.6440   24.4600 C.2     1  UNL1        0.2674
     26 O           2.1220   10.3050   23.2800 O.2     1  UNL1       -0.2683
     27 C           8.9830   14.2240   26.9080 C.ar    1  UNL1        0.0030
     28 N          10.3540   14.0370   24.4800 N.ar    1  UNL1       -0.2438
     29 C           9.0370   14.0910   24.5340 C.ar    1  UNL1        0.0988
     30 C          11.0520   14.0920   25.6650 C.ar    1  UNL1        0.0813
     31 C          10.3950   14.2020   26.9170 C.ar    1  UNL1        0.0177
     32 C          11.1830   14.3020   28.0940 C.ar    1  UNL1        0.0015
     33 C          12.5520   14.3030   28.0200 C.ar    1  UNL1        0.0001
     34 C          13.1970   14.1950   26.7870 C.ar    1  UNL1        0.0015
     35 C          12.4710   14.0700   25.6290 C.ar    1  UNL1        0.0191
     36 BR          2.2300    8.8280   27.1710 Br      1  UNL1       -0.0472
@<TRIPOS>BOND
     1     1     2   ar
     2     2     5    1
     3     3     4    1
     4     3     2   ar
     5     4     6    1
     6     4    15    1
     7     5    10   ar
     8     6     5   ar
     9     6     7   ar
    10     7     8   ar
    11     8     9   ar
    12    10    11    1
    13    10     9   ar
    14    11    27   ar
    15    12     3   ar
    16    13     1   ar
    17    14    12   ar
    18    14    13   ar
    19    16    36    1
    20    16    17   ar
    21    18    17   ar
    22    19    16   ar
    23    20    19   ar
    24    20    21   ar
    25    21    18   ar
    26    22    21   ar
    27    23    22   ar
    28    24    23   ar
    29    24    20   ar
    30    25    15   am
    31    25    19    1
    32    26    25    2
    33    27    31   ar
    34    28    29   ar
    35    28    30   ar
    36    29    11   ar
    37    30    31   ar
    38    31    32   ar
    39    33    32   ar
    40    34    33   ar
    41    35    30   ar
    42    35    34   ar
