@<TRIPOS>MOLECULE
/web/media/ligands/5MTQ_ligand.pdb
 28 31 0 0 0
SMALL
GASTEIGER

@<TRIPOS>ATOM
      1 N           8.9560    0.5500   53.3310 N.1     1  UNL1       -0.1907
      2 C           9.6680   -0.2730   53.7130 C.1     1  UNL1        0.1035
      3 C          10.5070   -1.2770   54.1490 C.ar    1  UNL1        0.1029
      4 C          10.9480   -1.1790   55.4340 C.ar    1  UNL1        0.0134
      5 C          11.7920   -2.1110   55.9660 C.ar    1  UNL1        0.0009
      6 C          12.1990   -3.1700   55.2130 C.ar    1  UNL1        0.0032
      7 C          11.7530   -3.3150   53.9010 C.ar    1  UNL1        0.0382
      8 C          10.8990   -2.3690   53.3780 C.ar    1  UNL1        0.1549
      9 O          10.4280   -2.4400   52.1080 O.3     1  UNL1       -0.4496
     10 C          10.6720   -3.5950   51.4030 C.ar    1  UNL1        0.1839
     11 C           9.9250   -4.7490   51.6780 C.ar    1  UNL1        0.2296
     12 C          10.1630   -5.9140   50.9780 C.ar    1  UNL1        0.0429
     13 O           9.0060   -4.7100   52.6570 O.3     1  UNL1       -0.2833
     14 C          11.6080   -3.6260   50.3850 C.ar    1  UNL1        0.0406
     15 C          11.8170   -4.8150   49.7000 C.ar    1  UNL1        0.0010
     16 C          11.1150   -5.9580   49.9890 C.ar    1  UNL1        0.0055
     17 C          11.3190   -7.1180   49.2620 C.3     1  UNL1        0.1557
     18 N          12.5900   -7.7130   49.7170 N.ar    1  UNL1       -0.2261
     19 C          12.7970   -8.6430   50.6330 C.ar    1  UNL1        0.1135
     20 N          13.6490   -7.3750   49.2470 N.ar    1  UNL1       -0.0638
     21 N          14.5730   -7.9500   49.7360 N.ar    1  UNL1       -0.1331
     22 C          14.0960   -8.7720   50.6380 C.ar    1  UNL1        0.1005
     23 C          14.9450   -9.6340   51.4790 C.3     1  UNL1        0.0437
     24 C          16.2670   -9.7720   50.7230 C.3     1  UNL1        0.0060
     25 C          16.8970  -11.0200   51.0950 C.3     1  UNL1        0.0004
     26 C          16.0280  -12.1890   50.5150 C.3     1  UNL1        0.0000
     27 C          14.5560  -11.8820   50.4880 C.3     1  UNL1        0.0004
     28 C          14.2570  -10.9980   51.6840 C.3     1  UNL1        0.0060
@<TRIPOS>BOND
     1     1     2    3
     2     2     3    1
     3     3     4   ar
     4     4     5   ar
     5     6     5   ar
     6     7     6   ar
     7     8     7   ar
     8     8     3   ar
     9     9     8    1
    10    10    11   ar
    11    10     9    1
    12    11    13    1
    13    12    11   ar
    14    14    10   ar
    15    15    16   ar
    16    15    14   ar
    17    16    12   ar
    18    17    18    1
    19    17    16    1
    20    18    19   ar
    21    19    22   ar
    22    20    18   ar
    23    20    21   ar
    24    21    22   ar
    25    22    23    1
    26    23    28    1
    27    24    25    1
    28    24    23    1
    29    26    25    1
    30    27    26    1
    31    27    28    1
