/web/media/ligands/5MTQ_ligand.pdb
 OpenBabel04242009293D

 28 31  0  0  0  0  0  0  0  0999 V2000
    8.9560    0.5500   53.3310 N   0  0  0  0  0  0  0  0  0  0  0  0
    9.6680   -0.2730   53.7130 C   0  0  0  0  0  0  0  0  0  0  0  0
   10.5070   -1.2770   54.1490 C   0  0  0  0  0  0  0  0  0  0  0  0
   10.9480   -1.1790   55.4340 C   0  0  0  0  0  0  0  0  0  0  0  0
   11.7920   -2.1110   55.9660 C   0  0  0  0  0  0  0  0  0  0  0  0
   12.1990   -3.1700   55.2130 C   0  0  0  0  0  0  0  0  0  0  0  0
   11.7530   -3.3150   53.9010 C   0  0  0  0  0  0  0  0  0  0  0  0
   10.8990   -2.3690   53.3780 C   0  0  0  0  0  0  0  0  0  0  0  0
   10.4280   -2.4400   52.1080 O   0  0  0  0  0  0  0  0  0  0  0  0
   10.6720   -3.5950   51.4030 C   0  0  0  0  0  0  0  0  0  0  0  0
    9.9250   -4.7490   51.6780 C   0  0  0  0  0  0  0  0  0  0  0  0
   10.1630   -5.9140   50.9780 C   0  0  0  0  0  0  0  0  0  0  0  0
    9.0060   -4.7100   52.6570 O   0  0  0  0  0  0  0  0  0  0  0  0
   11.6080   -3.6260   50.3850 C   0  0  0  0  0  0  0  0  0  0  0  0
   11.8170   -4.8150   49.7000 C   0  0  0  0  0  0  0  0  0  0  0  0
   11.1150   -5.9580   49.9890 C   0  0  0  0  0  0  0  0  0  0  0  0
   11.3190   -7.1180   49.2620 C   0  0  0  0  0  0  0  0  0  0  0  0
   12.5900   -7.7130   49.7170 N   0  0  0  0  0  0  0  0  0  0  0  0
   12.7970   -8.6430   50.6330 C   0  0  0  0  0  0  0  0  0  0  0  0
   13.6490   -7.3750   49.2470 N   0  0  0  0  0  0  0  0  0  0  0  0
   14.5730   -7.9500   49.7360 N   0  0  0  0  0  0  0  0  0  0  0  0
   14.0960   -8.7720   50.6380 C   0  0  0  0  0  0  0  0  0  0  0  0
   14.9450   -9.6340   51.4790 C   0  0  0  0  0  0  0  0  0  0  0  0
   16.2670   -9.7720   50.7230 C   0  0  0  0  0  0  0  0  0  0  0  0
   16.8970  -11.0200   51.0950 C   0  0  0  0  0  0  0  0  0  0  0  0
   16.0280  -12.1890   50.5150 C   0  0  0  0  0  0  0  0  0  0  0  0
   14.5560  -11.8820   50.4880 C   0  0  0  0  0  0  0  0  0  0  0  0
   14.2570  -10.9980   51.6840 C   0  0  0  0  0  0  0  0  0  0  0  0
  1  2  3  0  0  0  0
  2  3  1  0  0  0  0
  3  4  2  0  0  0  0
  4  5  1  0  0  0  0
  6  5  2  0  0  0  0
  7  6  1  0  0  0  0
  8  7  2  0  0  0  0
  8  3  1  0  0  0  0
  9  8  1  0  0  0  0
 10 11  1  0  0  0  0
 10  9  1  0  0  0  0
 11 13  1  0  0  0  0
 12 11  2  0  0  0  0
 14 10  2  0  0  0  0
 15 16  2  0  0  0  0
 15 14  1  0  0  0  0
 16 12  1  0  0  0  0
 17 18  1  0  0  0  0
 17 16  1  0  0  0  0
 18 19  1  0  0  0  0
 19 22  2  0  0  0  0
 20 18  1  0  0  0  0
 20 21  2  0  0  0  0
 21 22  1  0  0  0  0
 22 23  1  0  0  0  0
 23 28  1  0  0  0  0
 24 25  1  0  0  0  0
 24 23  1  0  0  0  0
 26 25  1  0  0  0  0
 27 26  1  0  0  0  0
 27 28  1  0  0  0  0
M  END
>  <REMARK>
 800 SITE_DESCRIPTION: binding site for residue XT3 A 302                 
 800 SITE_DESCRIPTION: binding site for residue XT3 B 302                 
 800 SITE_DESCRIPTION: binding site for residue XT3 E 302                 
 800 SITE_DESCRIPTION: binding site for residue XT3 G 302                 
 800 SITE_DESCRIPTION: binding site for residue XT3 C 302                 
 800 SITE_DESCRIPTION: binding site for residue XT3 D 302                 
 800 SITE_DESCRIPTION: binding site for residue XT3 F 302                 
 800 SITE_DESCRIPTION: binding site for residue XT3 H 302                 

>  <HET>
 XT3  A 302      28                                                       
 XT3  B 302      28                                                       
 XT3  E 302      28                                                       
 XT3  G 302      28                                                       
 XT3  C 302      28                                                       
 XT3  D 302      28                                                       
 XT3  F 302      28                                                       
 XT3  H 302      28                                                       

>  <HETNAM>
     XT3 2-[4-[(4-CYCLOHEXYL-1,2,3-TRIAZOL-1-YL)METHYL]-2-                
   2 XT3  OXIDANYL-PHENOXY]BENZENECARBONITRILE                            

>  <FORMUL>
  10  XT3    8(C22 H22 N4 O2)                                             

>  <SITE>
   6 AC1 31 THR A 196  ALA A 198  XT3 A 302  HOH A 408                    
   7 AC3 27 XT3 B 302  HOH B 401  HOH B 410                               
   6 AC5 26 THR E 196  ALA E 198  XT3 E 302  HOH E 401                    
   6 AC7 26 THR G 196  LEU G 197  ALA G 198  XT3 G 302                    
   6 AC9 27 ALA C 198  XT3 C 302  HOH C 404  HOH C 409                    
   6 AD2 26 THR D 196  ALA D 198  XT3 D 302  HOH D 413                    
   6 AD4 27 THR F 196  LEU F 197  ALA F 198  XT3 F 302                    
   6 AD6 26 THR H 196  LEU H 197  ALA H 198  XT3 H 302                    

$$$$
