@<TRIPOS>MOLECULE
/web/media/ligands/5MTR_ligand.pdb
 27 30 0 0 0
SMALL
GASTEIGER

@<TRIPOS>ATOM
      1 N          27.4480    2.7400   37.5900 N.1     1  UNL1       -0.1907
      2 C          26.6470    1.9370   37.1990 C.1     1  UNL1        0.1035
      3 C          25.7490    1.0500   36.7500 C.ar    1  UNL1        0.1029
      4 C          25.0100    1.3390   35.6030 C.ar    1  UNL1        0.0134
      5 C          24.0520    0.4660   35.1120 C.ar    1  UNL1        0.0009
      6 C          23.8180   -0.7070   35.8010 C.ar    1  UNL1        0.0032
      7 C          24.5080   -0.9640   36.9570 C.ar    1  UNL1        0.0382
      8 C          25.4860   -0.1050   37.4530 C.ar    1  UNL1        0.1549
      9 O          26.1980   -0.3310   38.6080 O.3     1  UNL1       -0.4496
     10 C          25.9710   -1.5070   39.2980 C.ar    1  UNL1        0.1839
     11 C          26.6790   -2.6900   38.9700 C.ar    1  UNL1        0.2296
     12 C          26.4690   -3.8930   39.7110 C.ar    1  UNL1        0.0429
     13 O          27.6120   -2.5180   37.9430 O.3     1  UNL1       -0.2833
     14 C          25.0220   -1.5520   40.3210 C.ar    1  UNL1        0.0406
     15 C          24.8210   -2.7280   41.0380 C.ar    1  UNL1        0.0010
     16 C          25.4980   -3.9110   40.7650 C.ar    1  UNL1        0.0055
     17 C          25.1540   -5.0230   41.5920 C.3     1  UNL1        0.1557
     18 N          23.8160   -5.5280   41.2740 N.ar    1  UNL1       -0.2261
     19 C          23.4250   -6.3880   40.3400 C.ar    1  UNL1        0.1135
     20 N          22.6530   -5.2010   42.0030 N.ar    1  UNL1       -0.0638
     21 N          21.6200   -5.8130   41.4690 N.ar    1  UNL1       -0.1331
     22 C          22.1150   -6.5470   40.4550 C.ar    1  UNL1        0.1005
     23 C          21.2440   -7.4410   39.5560 C.3     1  UNL1        0.0437
     24 C          19.8770   -7.8010   40.2240 C.3     1  UNL1        0.0060
     25 C          19.8450   -9.3380   40.3210 C.3     1  UNL1        0.0004
     26 C          21.3350   -9.6030   40.4380 C.3     1  UNL1        0.0004
     27 C          21.8990   -8.8250   39.3170 C.3     1  UNL1        0.0060
@<TRIPOS>BOND
     1     2     1    3
     2     3     2    1
     3     3     8   ar
     4     4     3   ar
     5     5     4   ar
     6     5     6   ar
     7     6     7   ar
     8     7     8   ar
     9     8     9    1
    10     9    10    1
    11    10    14   ar
    12    11    10   ar
    13    11    12   ar
    14    12    16   ar
    15    13    11    1
    16    14    15   ar
    17    16    15   ar
    18    16    17    1
    19    18    17    1
    20    18    20   ar
    21    19    22   ar
    22    19    18   ar
    23    21    20   ar
    24    22    21   ar
    25    23    24    1
    26    23    22    1
    27    24    25    1
    28    25    26    1
    29    27    23    1
    30    27    26    1
