/web/media/ligands/5NYH_ligand.pdb
 OpenBabel04242009293D

 33 37  0  0  0  0  0  0  0  0999 V2000
   -0.1620   33.7110   21.7930 C   0  0  0  0  0  0  0  0  0  0  0  0
   -1.2960   32.6640   23.7750 C   0  0  0  0  0  0  0  0  0  0  0  0
   -0.0500   31.8070   25.6150 C   0  0  0  0  0  0  0  0  0  0  0  0
    1.1580   32.1350   24.9810 C   0  0  0  0  0  0  0  0  0  0  0  0
    2.2130   31.7700   25.9080 C   0  0  0  0  0  0  0  0  0  0  0  0
    3.6720   32.0490   25.6960 C   0  0  0  0  0  0  0  0  0  0  0  0
    5.8190   31.4030   24.6350 C   0  0  0  0  0  0  0  0  0  0  0  0
    3.8890   29.9850   24.3450 C   0  0  0  0  0  0  0  0  0  0  0  0
    1.2170   35.5700   22.6790 C   0  0  0  0  0  0  0  0  0  0  0  0
    2.5660   35.7920   22.5200 C   0  0  0  0  0  0  0  0  0  0  0  0
    1.2830   36.7850   24.7470 C   0  0  0  0  0  0  0  0  0  0  0  0
    0.3960   35.5850   20.3680 C   0  0  0  0  0  0  0  0  0  0  0  0
    5.3690   38.9710   26.2050 C   0  0  0  0  0  0  0  0  0  0  0  0
    3.7110   38.6490   27.7900 C   0  0  0  0  0  0  0  0  0  0  0  0
    2.7030   38.2080   26.7590 C   0  0  0  0  0  0  0  0  0  0  0  0
    0.4690   34.9060   21.6520 N   0  0  0  0  0  0  0  0  0  0  0  0
   -0.7980   33.2150   20.8950 O   0  0  0  0  0  0  0  0  0  0  0  0
   -0.0990   33.0200   23.1240 C   0  0  0  0  0  0  0  0  0  0  0  0
    1.1230   32.7360   23.7300 C   0  0  0  0  0  0  0  0  0  0  0  0
   -1.2780   32.0580   25.0210 C   0  0  0  0  0  0  0  0  0  0  0  0
   -2.4840   32.9000   23.1810 O   0  0  0  0  0  0  0  0  0  0  0  0
    1.6230   31.2520   26.9930 N   0  0  0  0  0  0  0  0  0  0  0  0
    0.2840   31.2840   26.8160 N   0  0  0  0  0  0  0  0  0  0  0  0
    4.4010   31.2150   24.9440 N   0  0  0  0  0  0  0  0  0  0  0  0
    6.2420   30.0610   24.1000 C   0  0  0  0  0  0  0  0  0  0  0  0
    5.0470   29.4690   23.5320 C   0  0  0  0  0  0  0  0  0  0  0  0
    4.1380   33.0200   26.2430 O   0  0  0  0  0  0  0  0  0  0  0  0
    2.6440   37.0150   24.5930 C   0  0  0  0  0  0  0  0  0  0  0  0
    3.2710   36.5100   23.4630 C   0  0  0  0  0  0  0  0  0  0  0  0
    0.5790   36.0670   23.7990 C   0  0  0  0  0  0  0  0  0  0  0  0
    3.3800   37.6940   25.5620 N   0  0  0  0  0  0  0  0  0  0  0  0
    4.4650   38.5450   25.0630 C   0  0  0  0  0  0  0  0  0  0  0  0
    4.6300   39.5630   27.2540 O   0  0  0  0  0  0  0  0  0  0  0  0
  1 18  1  0  0  0  0
  2 20  2  0  0  0  0
  3 23  2  0  0  0  0
  4  3  1  0  0  0  0
  4  5  2  0  0  0  0
  5 22  1  0  0  0  0
  6  5  1  0  0  0  0
  6 27  2  0  0  0  0
  7 24  1  0  0  0  0
  8 24  1  0  0  0  0
  9 30  1  0  0  0  0
 10  9  2  0  0  0  0
 10 29  1  0  0  0  0
 12 16  1  0  0  0  0
 13 33  1  0  0  0  0
 15 14  1  0  0  0  0
 16  1  1  0  0  0  0
 16  9  1  0  0  0  0
 17  1  2  0  0  0  0
 18 19  2  0  0  0  0
 18  2  1  0  0  0  0
 19  4  1  0  0  0  0
 20  3  1  0  0  0  0
 21  2  1  0  0  0  0
 23 22  1  0  0  0  0
 24  6  1  0  0  0  0
 25  7  1  0  0  0  0
 26 25  1  0  0  0  0
 26  8  1  0  0  0  0
 28 11  1  0  0  0  0
 28 31  1  0  0  0  0
 29 28  2  0  0  0  0
 30 11  2  0  0  0  0
 31 15  1  0  0  0  0
 32 31  1  0  0  0  0
 32 13  1  0  0  0  0
 33 14  1  0  0  0  0
M  END
>  <REMARK>
 800 SITE_DESCRIPTION: binding site for residue 9EK A 301                 

>  <HET>
 9EK  A 301      33                                                       

>  <HETNAM>
     9EK ~{N}-METHYL-~{N}-(4-MORPHOLIN-4-YLPHENYL)-6-OXIDANYL-3-          
   2 9EK  PYRROLIDIN-1-YLCARBONYL-2~{H}-INDAZOLE-5-CARBOXAMIDE            

>  <FORMUL>
   2  9EK    C24 H27 N5 O4                                                

$$$$
