/web/media/ligands/5OCI_ligand.pdb
 OpenBabel04242009293D

 34 38  0  0  0  0  0  0  0  0999 V2000
   66.6840   34.1930   23.6990 C   0  0  0  0  0  0  0  0  0  0  0  0
   65.5130   33.8560   24.4300 C   0  0  0  0  0  0  0  0  0  0  0  0
   65.5760   33.2100   25.6460 C   0  0  0  0  0  0  0  0  0  0  0  0
   64.3100   34.2050   23.9200 O   0  0  0  0  0  0  0  0  0  0  0  0
   68.0220   33.3020   25.4770 C   0  0  0  0  0  0  0  0  0  0  0  0
   66.8430   32.9430   26.1860 C   0  0  0  0  0  0  0  0  0  0  0  0
   69.1230   32.9340   26.3620 C   0  0  0  0  0  0  0  0  0  0  0  0
   70.5960   33.2140   26.1430 C   0  0  0  0  0  0  0  0  0  0  0  0
   71.2560   32.5520   24.9630 C   0  0  0  0  0  0  0  0  0  0  0  0
   71.6630   33.3440   23.8870 C   0  0  0  0  0  0  0  0  0  0  0  0
   72.7120   31.4120   22.8800 C   0  0  0  0  0  0  0  0  0  0  0  0
   71.5980   31.2090   25.0220 C   0  0  0  0  0  0  0  0  0  0  0  0
   72.6570   29.1930   24.0440 C   0  0  0  0  0  0  0  0  0  0  0  0
   68.2730   37.9130   25.2540 C   0  0  0  0  0  0  0  0  0  0  0  0
   67.4530   37.2510   24.3420 C   0  0  0  0  0  0  0  0  0  0  0  0
   69.3420   36.8510   22.8680 C   0  0  0  0  0  0  0  0  0  0  0  0
   70.5180   38.6870   25.9200 N   0  0  0  0  0  0  0  0  0  0  0  0
   69.9100   39.0290   27.2350 C   0  0  0  0  0  0  0  0  0  0  0  0
   70.8360   39.9420   28.0580 C   0  0  0  0  0  0  0  0  0  0  0  0
   72.7470   39.1540   26.7600 C   0  0  0  0  0  0  0  0  0  0  0  0
   71.8790   38.1170   26.0210 C   0  0  0  0  0  0  0  0  0  0  0  0
   67.9540   33.8790   24.2060 C   0  0  0  0  0  0  0  0  0  0  0  0
   66.5390   34.8760   22.3910 C   0  0  0  0  0  0  0  0  0  0  0  0
   65.8330   34.3380   21.5410 O   0  0  0  0  0  0  0  0  0  0  0  0
   67.2300   32.4350   27.3930 N   0  0  0  0  0  0  0  0  0  0  0  0
   68.6240   32.4460   27.4610 N   0  0  0  0  0  0  0  0  0  0  0  0
   72.3030   30.6380   23.9600 C   0  0  0  0  0  0  0  0  0  0  0  0
   72.3730   32.7580   22.8380 C   0  0  0  0  0  0  0  0  0  0  0  0
   67.9650   36.7250   23.1430 C   0  0  0  0  0  0  0  0  0  0  0  0
   69.6500   37.9990   25.0090 C   0  0  0  0  0  0  0  0  0  0  0  0
   70.1480   37.5150   23.7830 C   0  0  0  0  0  0  0  0  0  0  0  0
   67.1310   36.0840   22.1910 N   0  0  0  0  0  0  0  0  0  0  0  0
   66.9450   36.7400   20.8890 C   0  0  0  0  0  0  0  0  0  0  0  0
   72.1450   39.3590   28.0530 O   0  0  0  0  0  0  0  0  0  0  0  0
  1 22  2  0  0  0  0
  1  2  1  0  0  0  0
  2  3  2  0  0  0  0
  3  6  1  0  0  0  0
  4  2  1  0  0  0  0
  5  6  2  0  0  0  0
  5  7  1  0  0  0  0
  6 25  1  0  0  0  0
  7 26  2  0  0  0  0
  8  7  1  0  0  0  0
  9 12  1  0  0  0  0
  9  8  1  0  0  0  0
 10  9  2  0  0  0  0
 11 27  1  0  0  0  0
 15 14  2  0  0  0  0
 16 29  2  0  0  0  0
 16 31  1  0  0  0  0
 17 21  1  0  0  0  0
 17 18  1  0  0  0  0
 18 19  1  0  0  0  0
 20 34  1  0  0  0  0
 21 20  1  0  0  0  0
 22  5  1  0  0  0  0
 23  1  1  0  0  0  0
 24 23  2  0  0  0  0
 25 26  1  0  0  0  0
 27 13  1  0  0  0  0
 27 12  2  0  0  0  0
 28 11  2  0  0  0  0
 28 10  1  0  0  0  0
 29 15  1  0  0  0  0
 30 14  1  0  0  0  0
 30 17  1  0  0  0  0
 31 30  2  0  0  0  0
 32 23  1  0  0  0  0
 32 29  1  0  0  0  0
 33 32  1  0  0  0  0
 34 19  1  0  0  0  0
M  END
>  <REMARK>
 800 SITE_DESCRIPTION: binding site for residue 9R8 A 301                 

>  <HET>
 9R8  A 301      34                                                       

>  <HETNAM>
     9R8 6-HYDROXY-3-(3-METHYL-BENZYL)-1H-INDAZOLE-5-CARBOXYLIC           
   2 9R8  ACID METHYL-(4-MORPHOLIN-4-YL-PHENYL)-AMIDE                     

>  <FORMUL>
   2  9R8    C27 H28 N4 O3                                                

$$$$
