/web/media/ligands/5OD7_ligand.pdb
 OpenBabel04242009293D

 38 43  0  0  1  0  0  0  0  0999 V2000
   -1.2700   34.0980   25.1950 C   0  0  0  0  0  0  0  0  0  0  0  0
   -2.8910   33.5640   23.3880 C   0  0  0  0  0  0  0  0  0  0  0  0
   -3.1950   34.6210   22.8980 O   0  0  0  0  0  0  0  0  0  0  0  0
   -2.1710   34.9930   25.7590 C   0  0  0  0  0  0  0  0  0  0  0  0
    0.3340   34.5810   26.9580 C   0  0  0  0  0  0  0  0  0  0  0  0
   -1.8010   35.6650   26.9040 C   0  0  0  0  0  0  0  0  0  0  0  0
   -0.5460   35.4530   27.4910 C   0  0  0  0  0  0  0  0  0  0  0  0
    0.4950   32.4100   24.1250 C   0  0  0  0  0  0  0  0  0  0  0  0
   -2.6960   36.6730   27.4990 C   0  0  0  0  0  0  0  0  0  0  0  0
   -5.0890   32.5570   22.7880 C   0  0  0  0  0  0  0  0  0  0  0  0
   -5.7960   31.3240   23.2650 C   0  0  0  0  0  0  0  0  0  0  0  0
   -7.1100   30.9240   23.1310 C   0  0  0  0  0  0  0  0  0  0  0  0
   -7.5270   29.7270   23.6600 C   0  0  0  0  0  0  0  0  0  0  0  0
   -6.6240   28.9270   24.3240 C   0  0  0  0  0  0  0  0  0  0  0  0
   -3.6660   36.3600   28.4390 C   0  0  0  0  0  0  0  0  0  0  0  0
   -3.3090   38.9840   27.5980 C   0  0  0  0  0  0  0  0  0  0  0  0
   -3.3870   38.6480   24.1780 C   0  0  0  0  0  0  0  0  0  0  0  0
   -3.4850   39.3150   22.8070 C   0  0  0  0  0  0  0  0  0  0  0  0
   -3.7500   32.5400   23.3640 N   0  0  0  0  0  0  0  0  0  0  0  0
   -1.5730   33.3840   24.0230 C   0  0  2  0  0  0  0  0  0  0  0  0
   -0.0080   33.8900   25.7960 C   0  0  0  0  0  0  0  0  0  0  0  0
   -0.6760   32.5550   23.5340 N   0  0  0  0  0  0  0  0  0  0  0  0
    0.8250   33.0340   25.2300 N   0  0  0  0  0  0  0  0  0  0  0  0
    1.4050   31.5440   23.5690 N   0  0  0  0  0  0  0  0  0  0  0  0
   -3.5460   31.2020   23.9200 C   0  0  0  0  0  0  0  0  0  0  0  0
   -4.8920   30.5240   23.9260 C   0  0  0  0  0  0  0  0  0  0  0  0
   -5.3110   29.3210   24.4550 C   0  0  0  0  0  0  0  0  0  0  0  0
   -4.4560   37.3640   28.9470 C   0  0  0  0  0  0  0  0  0  0  0  0
   -4.2770   38.6680   28.5300 C   0  0  0  0  0  0  0  0  0  0  0  0
   -2.5060   37.9990   27.0790 C   0  0  0  0  0  0  0  0  0  0  0  0
   -1.2960   38.4640   25.8680 S   0  0  0  0  0  0  0  0  0  0  0  0
   -1.1790   39.8670   25.9330 O   0  0  0  0  0  0  0  0  0  0  0  0
   -0.1720   37.6230   25.9240 O   0  0  0  0  0  0  0  0  0  0  0  0
   -2.0120   38.1860   24.4070 N   0  0  0  0  0  0  0  0  0  0  0  0
   -2.9800   38.3930   21.7880 N   0  0  0  0  0  0  0  0  0  0  0  0
   -1.5460   38.1730   21.9920 C   0  0  0  0  0  0  0  0  0  0  0  0
   -1.3180   37.4670   23.3280 C   0  0  0  0  0  0  0  0  0  0  0  0
   -3.2360   38.9330   20.4510 C   0  0  0  0  0  0  0  0  0  0  0  0
  1  4  2  0  0  0  0
  1 21  1  0  0  0  0
  3  2  2  0  0  0  0
  4  6  1  0  0  0  0
  5  7  1  0  0  0  0
  6  7  2  0  0  0  0
  6  9  1  0  0  0  0
  8 23  1  0  0  0  0
  9 15  1  0  0  0  0
 10 11  1  0  0  0  0
 10 19  1  0  0  0  0
 11 26  1  0  0  0  0
 12 11  2  0  0  0  0
 12 13  1  0  0  0  0
 13 14  2  0  0  0  0
 14 27  1  0  0  0  0
 15 28  2  0  0  0  0
 16 29  2  0  0  0  0
 17 34  1  0  0  0  0
 18 17  1  0  0  0  0
 19  2  1  0  0  0  0
 19 25  1  0  0  0  0
 20  2  1  1  0  0  0
 20  1  1  0  0  0  0
 21  5  2  0  0  0  0
 22 20  1  0  0  0  0
 22  8  2  0  0  0  0
 23 21  1  0  0  0  0
 24  8  1  0  0  0  0
 25 26  1  0  0  0  0
 26 27  2  0  0  0  0
 29 28  1  0  0  0  0
 30  9  2  0  0  0  0
 30 16  1  0  0  0  0
 31 33  2  0  0  0  0
 31 32  2  0  0  0  0
 31 30  1  0  0  0  0
 34 31  1  0  0  0  0
 35 36  1  0  0  0  0
 35 18  1  0  0  0  0
 36 37  1  0  0  0  0
 37 34  1  0  0  0  0
 38 35  1  0  0  0  0
M  END
>  <REMARK>
 800 SITE_DESCRIPTION: binding site for residue H0T A 301                 

>  <HET>
 H0T  A 301      38                                                       

>  <HETNAM>
     H0T [2-AZANYL-6-[2-(4-METHYLPIPERAZIN-1-YL)                          
   2 H0T  SULFONYLPHENYL]QUINAZOLIN-4-YL]-(1,3-DIHYDROISOINDOL-           
   3 H0T  2-YL)METHANONE                                                  

>  <FORMUL>
   2  H0T    C28 H28 N6 O3 S                                              

$$$$
