REMARK  Name = /web/media/ligands/5OD7_ligand.pdb
REMARK  4 active torsions:
REMARK  status: ('A' for Active; 'I' for Inactive)
REMARK    1  A    between atoms: C_2  and  C_20
REMARK    2  A    between atoms: C_6  and  C_9
REMARK    3  A    between atoms: C_30  and  S_31
REMARK    4  A    between atoms: S_31  and  N_34
REMARK                            x       y       z     vdW  Elec       q    Type
REMARK                         _______ _______ _______ _____ _____    ______ ____
ROOT
ATOM      1  C   UNL     1      -1.270  34.098  25.195  0.00  0.00    +0.058 A 
ATOM      2  C   UNL     1      -1.573  33.384  24.023  0.00  0.00    +0.281 C 
ATOM      3  N   UNL     1      -0.676  32.555  23.534  0.00  0.00    -0.083 NA
ATOM      4  C   UNL     1       0.495  32.410  24.125  0.00  0.00    +0.478 C 
ATOM      5  N   UNL     1       1.405  31.544  23.569  0.00  0.00    +0.147 NA
ATOM      6  N   UNL     1       0.825  33.034  25.230  0.00  0.00    -0.035 NA
ATOM      7  C   UNL     1      -0.008  33.890  25.796  0.00  0.00    +0.148 A 
ATOM      8  C   UNL     1       0.334  34.581  26.958  0.00  0.00    +0.034 A 
ATOM      9  C   UNL     1      -0.546  35.453  27.491  0.00  0.00    +0.003 A 
ATOM     10  C   UNL     1      -1.801  35.665  26.904  0.00  0.00    +0.001 A 
ATOM     11  C   UNL     1      -2.171  34.993  25.759  0.00  0.00    +0.002 A 
ENDROOT
BRANCH   2  12
ATOM     12  C   UNL     1      -2.891  33.564  23.388  0.00  0.00    +0.271 C 
ATOM     13  N   UNL     1      -3.750  32.540  23.364  0.00  0.00    -0.268 N 
ATOM     14  C   UNL     1      -3.546  31.202  23.920  0.00  0.00    +0.120 C 
ATOM     15  C   UNL     1      -4.892  30.524  23.926  0.00  0.00    -0.005 A 
ATOM     16  C   UNL     1      -5.311  29.321  24.455  0.00  0.00    -0.003 A 
ATOM     17  C   UNL     1      -6.624  28.927  24.324  0.00  0.00    -0.000 A 
ATOM     18  C   UNL     1      -7.527  29.727  23.660  0.00  0.00    -0.000 A 
ATOM     19  C   UNL     1      -7.110  30.924  23.131  0.00  0.00    -0.003 A 
ATOM     20  C   UNL     1      -5.796  31.324  23.265  0.00  0.00    -0.005 A 
ATOM     21  C   UNL     1      -5.089  32.557  22.788  0.00  0.00    +0.120 C 
ATOM     22  O   UNL     1      -3.195  34.621  22.898  0.00  0.00    -0.271 OA
ENDBRANCH   2  12
BRANCH  10  23
ATOM     23  C   UNL     1      -2.696  36.673  27.499  0.00  0.00    +0.019 A 
ATOM     24  C   UNL     1      -2.506  37.999  27.079  0.00  0.00    +0.122 A 
ATOM     25  C   UNL     1      -3.309  38.984  27.598  0.00  0.00    +0.020 A 
ATOM     26  C   UNL     1      -4.277  38.668  28.530  0.00  0.00    +0.001 A 
ATOM     27  C   UNL     1      -4.456  37.364  28.947  0.00  0.00    +0.000 A 
ATOM     28  C   UNL     1      -3.666  36.360  28.439  0.00  0.00    +0.001 A 
BRANCH  24  29
ATOM     29  S   UNL     1      -1.296  38.464  25.868  0.00  0.00    +0.063 S 
ATOM     30  O   UNL     1      -1.179  39.867  25.933  0.00  0.00    -0.153 OA
ATOM     31  O   UNL     1      -0.172  37.623  25.924  0.00  0.00    -0.153 OA
BRANCH  29  32
ATOM     32  N   UNL     1      -2.012  38.186  24.407  0.00  0.00    -0.153 NA
ATOM     33  C   UNL     1      -1.318  37.467  23.328  0.00  0.00    +0.113 C 
ATOM     34  C   UNL     1      -1.546  38.173  21.992  0.00  0.00    +0.092 C 
ATOM     35  N   UNL     1      -2.980  38.393  21.788  0.00  0.00    -0.269 NA
ATOM     36  C   UNL     1      -3.236  38.933  20.451  0.00  0.00    +0.090 C 
ATOM     37  C   UNL     1      -3.485  39.315  22.807  0.00  0.00    +0.092 C 
ATOM     38  C   UNL     1      -3.387  38.648  24.178  0.00  0.00    +0.113 C 
ENDBRANCH  29  32
ENDBRANCH  24  29
ENDBRANCH  10  23
TORSDOF 4
