@<TRIPOS>MOLECULE
/web/media/ligands/5OD7_ligand.pdb
 38 43 0 0 0
SMALL
GASTEIGER

@<TRIPOS>ATOM
      1 C          -1.2700   34.0980   25.1950 C.ar    1  UNL1        0.0580
      2 C          -2.8910   33.5640   23.3880 C.2     1  UNL1        0.2707
      3 O          -3.1950   34.6210   22.8980 O.2     1  UNL1       -0.2707
      4 C          -2.1710   34.9930   25.7590 C.ar    1  UNL1        0.0023
      5 C           0.3340   34.5810   26.9580 C.ar    1  UNL1        0.0345
      6 C          -1.8010   35.6650   26.9040 C.ar    1  UNL1        0.0013
      7 C          -0.5460   35.4530   27.4910 C.ar    1  UNL1        0.0028
      8 C           0.4950   32.4100   24.1250 C.cat   1  UNL1        0.4779
      9 C          -2.6960   36.6730   27.4990 C.ar    1  UNL1        0.0186
     10 C          -5.0890   32.5570   22.7880 C.3     1  UNL1        0.1203
     11 C          -5.7960   31.3240   23.2650 C.ar    1  UNL1       -0.0047
     12 C          -7.1100   30.9240   23.1310 C.ar    1  UNL1       -0.0029
     13 C          -7.5270   29.7270   23.6600 C.ar    1  UNL1       -0.0003
     14 C          -6.6240   28.9270   24.3240 C.ar    1  UNL1       -0.0003
     15 C          -3.6660   36.3600   28.4390 C.ar    1  UNL1        0.0013
     16 C          -3.3090   38.9840   27.5980 C.ar    1  UNL1        0.0199
     17 C          -3.3870   38.6480   24.1780 C.3     1  UNL1        0.1131
     18 C          -3.4850   39.3150   22.8070 C.3     1  UNL1        0.0915
     19 N          -3.7500   32.5400   23.3640 N.am    1  UNL1       -0.2682
     20 C          -1.5730   33.3840   24.0230 C.3     1  UNL1        0.2806
     21 C          -0.0080   33.8900   25.7960 C.ar    1  UNL1        0.1480
     22 N          -0.6760   32.5550   23.5340 N.2     1  UNL1       -0.0826
     23 N           0.8250   33.0340   25.2300 N.pl3   1  UNL1       -0.0353
     24 N           1.4050   31.5440   23.5690 N.pl3   1  UNL1        0.1471
     25 C          -3.5460   31.2020   23.9200 C.3     1  UNL1        0.1203
     26 C          -4.8920   30.5240   23.9260 C.ar    1  UNL1       -0.0047
     27 C          -5.3110   29.3210   24.4550 C.ar    1  UNL1       -0.0029
     28 C          -4.4560   37.3640   28.9470 C.ar    1  UNL1        0.0001
     29 C          -4.2770   38.6680   28.5300 C.ar    1  UNL1        0.0014
     30 C          -2.5060   37.9990   27.0790 C.ar    1  UNL1        0.1222
     31 S          -1.2960   38.4640   25.8680 S.O2    1  UNL1        0.0634
     32 O          -1.1790   39.8670   25.9330 O.2     1  UNL1       -0.1528
     33 O          -0.1720   37.6230   25.9240 O.2     1  UNL1       -0.1528
     34 N          -2.0120   38.1860   24.4070 N.3     1  UNL1       -0.1527
     35 N          -2.9800   38.3930   21.7880 N.3     1  UNL1       -0.2690
     36 C          -1.5460   38.1730   21.9920 C.3     1  UNL1        0.0915
     37 C          -1.3180   37.4670   23.3280 C.3     1  UNL1        0.1131
     38 C          -3.2360   38.9330   20.4510 C.3     1  UNL1        0.0897
@<TRIPOS>BOND
     1     1     4   ar
     2     1    21   ar
     3     3     2    2
     4     4     6   ar
     5     5     7   ar
     6     6     7   ar
     7     6     9    1
     8     8    23    1
     9     9    15   ar
    10    10    11    1
    11    10    19    1
    12    11    26   ar
    13    12    11   ar
    14    12    13   ar
    15    13    14   ar
    16    14    27   ar
    17    15    28   ar
    18    16    29   ar
    19    17    34    1
    20    18    17    1
    21    19     2   am
    22    19    25    1
    23    20     2    1
    24    20     1    1
    25    21     5   ar
    26    22    20    1
    27    22     8    2
    28    23    21    1
    29    24     8    1
    30    25    26    1
    31    26    27   ar
    32    29    28   ar
    33    30     9   ar
    34    30    16   ar
    35    31    33    2
    36    31    32    2
    37    31    30    1
    38    34    31    1
    39    35    36    1
    40    35    18    1
    41    36    37    1
    42    37    34    1
    43    38    35    1
