REMARK  Name = /web/media/ligands/5ODX_ligand.pdb
REMARK  5 active torsions:
REMARK  status: ('A' for Active; 'I' for Inactive)
REMARK    1  A    between atoms: C_1  and  C_19
REMARK    2  A    between atoms: C_5  and  C_6
REMARK    3  A    between atoms: C_8  and  O_28
REMARK    4  A    between atoms: C_11  and  N_17
REMARK    5  A    between atoms: C_31  and  N_34
REMARK                            x       y       z     vdW  Elec       q    Type
REMARK                         _______ _______ _______ _____ _____    ______ ____
ROOT
ATOM      1  C   UNL     1      -0.173  33.317  23.316  0.00  0.00    +0.093 A 
ATOM      2  C   UNL     1       1.020  33.202  23.985  0.00  0.00    +0.011 A 
ATOM      3  C   UNL     1       1.055  32.611  25.234  0.00  0.00    +0.044 A 
ATOM      4  C   UNL     1       2.095  32.329  26.213  0.00  0.00    +0.158 A 
ATOM      5  N   UNL     1       1.493  31.789  27.226  0.00  0.00    -0.143 NA
ATOM      6  N   UNL     1       0.257  31.627  27.024  0.00  0.00    -0.148 NA
ATOM      7  C   UNL     1      -0.124  32.124  25.826  0.00  0.00    +0.108 A 
ATOM      8  C   UNL     1      -1.322  32.237  25.135  0.00  0.00    +0.063 A 
ATOM      9  C   UNL     1      -1.355  32.841  23.900  0.00  0.00    +0.202 A 
ATOM     10  O   UNL     1      -2.501  32.990  23.237  0.00  0.00    -0.286 OA
ENDROOT
BRANCH   4  11
ATOM     11  C   UNL     1       3.492  32.763  26.067  0.00  0.00    +0.269 C 
ATOM     12  N   UNL     1       4.391  32.283  25.213  0.00  0.00    -0.272 N 
ATOM     13  C   UNL     1       4.035  31.177  24.351  0.00  0.00    +0.123 C 
ATOM     14  C   UNL     1       5.225  30.248  24.198  0.00  0.00    +0.135 C 
ATOM     15  C   UNL     1       6.395  31.061  23.674  0.00  0.00    +0.033 C 
ATOM     16  C   UNL     1       6.848  31.873  24.836  0.00  0.00    +0.024 C 
ATOM     17  C   UNL     1       5.756  32.879  25.128  0.00  0.00    +0.094 C 
ATOM     18  O   UNL     1       3.792  33.677  26.767  0.00  0.00    -0.268 OA
BRANCH  14  19
ATOM     19  O   UNL     1       4.870  29.294  23.282  0.00  0.00    -0.352 OA
ATOM     20  C   UNL     1       5.876  28.333  23.045  0.00  0.00    +0.174 C 
ENDBRANCH  14  19
ENDBRANCH   4  11
BRANCH   1  21
ATOM     21  C   UNL     1      -0.227  33.960  21.998  0.00  0.00    +0.256 C 
ATOM     22  O   UNL     1      -0.794  33.391  21.109  0.00  0.00    -0.269 OA
ATOM     23  N   UNL     1       0.363  35.156  21.816  0.00  0.00    -0.253 N 
ATOM     24  C   UNL     1       0.302  35.796  20.521  0.00  0.00    +0.120 C 
BRANCH  23  25
ATOM     25  C   UNL     1       1.043  35.847  22.825  0.00  0.00    +0.054 A 
ATOM     26  C   UNL     1       2.386  36.086  22.708  0.00  0.00    +0.016 A 
ATOM     27  C   UNL     1       3.064  36.774  23.677  0.00  0.00    +0.016 A 
ATOM     28  C   UNL     1       2.431  37.248  24.810  0.00  0.00    +0.048 A 
ATOM     29  C   UNL     1       1.076  37.026  24.917  0.00  0.00    +0.016 A 
ATOM     30  C   UNL     1       0.406  36.338  23.945  0.00  0.00    +0.016 A 
BRANCH  28  31
ATOM     31  N   UNL     1       3.116  37.961  25.799  0.00  0.00    -0.303 N 
ATOM     32  C   UNL     1       4.571  38.024  25.743  0.00  0.00    +0.123 C 
ATOM     33  C   UNL     1       5.122  39.118  26.670  0.00  0.00    +0.164 C 
ATOM     34  O   UNL     1       4.578  38.925  27.957  0.00  0.00    -0.350 OA
ATOM     35  C   UNL     1       3.193  39.124  27.984  0.00  0.00    +0.164 C 
ATOM     36  C   UNL     1       2.527  38.043  27.141  0.00  0.00    +0.123 C 
ENDBRANCH  28  31
ENDBRANCH  23  25
ENDBRANCH   1  21
TORSDOF 5
