@<TRIPOS>MOLECULE
/web/media/ligands/5ODX_ligand.pdb
 36 40 0 0 0
SMALL
GASTEIGER

@<TRIPOS>ATOM
      1 C          -0.2270   33.9600   21.9980 C.2     1  UNL1        0.2559
      2 C          -1.3550   32.8410   23.9000 C.ar    1  UNL1        0.2016
      3 C          -0.1240   32.1240   25.8260 C.ar    1  UNL1        0.1077
      4 C           1.0550   32.6110   25.2340 C.ar    1  UNL1        0.0436
      5 C           2.0950   32.3290   26.2130 C.ar    1  UNL1        0.1576
      6 C           3.4920   32.7630   26.0670 C.2     1  UNL1        0.2687
      7 C           5.7560   32.8790   25.1280 C.3     1  UNL1        0.0939
      8 C           5.2250   30.2480   24.1980 C.3     1  UNL1        0.1351
      9 C           6.3950   31.0610   23.6740 C.3     1  UNL1        0.0331
     10 C           6.8480   31.8730   24.8360 C.3     1  UNL1        0.0241
     11 C           1.0430   35.8470   22.8250 C.ar    1  UNL1        0.0542
     12 C           3.0640   36.7740   23.6770 C.ar    1  UNL1        0.0158
     13 C           0.3020   35.7960   20.5210 C.3     1  UNL1        0.1203
     14 C           2.5270   38.0430   27.1410 C.3     1  UNL1        0.1231
     15 C           3.1930   39.1240   27.9840 C.3     1  UNL1        0.1636
     16 C           5.1220   39.1180   26.6700 C.3     1  UNL1        0.1636
     17 N           0.3630   35.1560   21.8160 N.am    1  UNL1       -0.2533
     18 O          -0.7940   33.3910   21.1090 O.2     1  UNL1       -0.2695
     19 C          -0.1730   33.3170   23.3160 C.ar    1  UNL1        0.0929
     20 C           1.0200   33.2020   23.9850 C.ar    1  UNL1        0.0110
     21 C          -1.3220   32.2370   25.1350 C.ar    1  UNL1        0.0631
     22 O          -2.5010   32.9900   23.2370 O.3     1  UNL1       -0.2864
     23 N           1.4930   31.7890   27.2260 N.ar    1  UNL1       -0.1433
     24 N           0.2570   31.6270   27.0240 N.ar    1  UNL1       -0.1477
     25 O           3.7920   33.6770   26.7670 O.2     1  UNL1       -0.2682
     26 N           4.3910   32.2830   25.2130 N.am    1  UNL1       -0.2723
     27 C           4.0350   31.1770   24.3510 C.3     1  UNL1        0.1232
     28 O           4.8700   29.2940   23.2820 O.3     1  UNL1       -0.3518
     29 C           5.8760   28.3330   23.0450 C.3     1  UNL1        0.1741
     30 C           0.4060   36.3380   23.9450 C.ar    1  UNL1        0.0162
     31 C           2.4310   37.2480   24.8100 C.ar    1  UNL1        0.0481
     32 C           1.0760   37.0260   24.9170 C.ar    1  UNL1        0.0158
     33 C           2.3860   36.0860   22.7080 C.ar    1  UNL1        0.0162
     34 N           3.1160   37.9610   25.7990 N.pl3   1  UNL1       -0.3028
     35 O           4.5780   38.9250   27.9570 O.3     1  UNL1       -0.3501
     36 C           4.5710   38.0240   25.7430 C.3     1  UNL1        0.1231
@<TRIPOS>BOND
     1     1    19    1
     2     2    21   ar
     3     3    24   ar
     4     4     3   ar
     5     4     5   ar
     6     5    23   ar
     7     6     5    1
     8     6    25    2
     9     7    26    1
    10     8    28    1
    11     8    27    1
    12     9     8    1
    13     9    10    1
    14    10     7    1
    15    11    30   ar
    16    12    31   ar
    17    13    17    1
    18    14    15    1
    19    16    35    1
    20    17     1   am
    21    17    11    1
    22    18     1    2
    23    19     2   ar
    24    19    20   ar
    25    20     4   ar
    26    21     3   ar
    27    22     2    1
    28    24    23   ar
    29    26     6   am
    30    27    26    1
    31    29    28    1
    32    30    32   ar
    33    31    32   ar
    34    31    34    1
    35    33    11   ar
    36    33    12   ar
    37    34    14    1
    38    35    15    1
    39    36    34    1
    40    36    16    1
