REMARK  Name = /web/media/ligands/5T21_ligand.pdb
REMARK  4 active torsions:
REMARK  status: ('A' for Active; 'I' for Inactive)
REMARK    1  A    between atoms: C_8  and  N_14
REMARK    2  A    between atoms: C_16  and  C_19
REMARK    3  A    between atoms: C_17  and  N_21
REMARK    4  A    between atoms: N_21  and  C_22
REMARK                            x       y       z     vdW  Elec       q    Type
REMARK                         _______ _______ _______ _____ _____    ______ ____
ROOT
ATOM      1  C   UNL     1      30.474  24.266  11.274  0.00  0.00    +0.065 A 
ATOM      2  C   UNL     1      31.025  24.940  10.183  0.00  0.00    +0.034 A 
ATOM      3  C   UNL     1      32.395  25.215  10.136  0.00  0.00    +0.071 A 
ATOM      4  C   UNL     1      33.224  24.792  11.201  0.00  0.00    +0.072 A 
ATOM      5  C   UNL     1      32.655  24.102  12.278  0.00  0.00    +0.007 A 
ATOM      6  C   UNL     1      31.297  23.832  12.313  0.00  0.00    +0.018 A 
ENDROOT
BRANCH   1  14
ATOM      7  C   UNL     1      26.193  24.767  14.383  0.00  0.00    +0.070 C 
ATOM      8  C   UNL     1      25.808  24.389  12.973  0.00  0.00    +0.174 C 
ATOM      9  O   UNL     1      24.628  24.369  12.651  0.00  0.00    -0.291 OA
ATOM     10  C   UNL     1      26.887  24.144  12.006  0.00  0.00    +0.044 A 
ATOM     11  C   UNL     1      26.937  23.700  10.639  0.00  0.00    -0.000 A 
ATOM     12  C   UNL     1      25.781  23.342   9.737  0.00  0.00    +0.033 C 
ATOM     13  C   UNL     1      28.259  23.673  10.284  0.00  0.00    +0.076 A 
ATOM     14  N   UNL     1      29.044  24.087  11.344  0.00  0.00    -0.309 N 
ATOM     15  C   UNL     1      28.192  24.375  12.412  0.00  0.00    +0.044 A 
ATOM     16  C   UNL     1      28.597  24.913  13.751  0.00  0.00    +0.045 C 
ATOM     17  C   UNL     1      27.465  25.616  14.512  0.00  0.00    +0.013 C 
ATOM     18  C   UNL     1      27.849  25.752  15.985  0.00  0.00    +0.001 C 
ATOM     19  C   UNL     1      27.226  27.013  13.931  0.00  0.00    +0.001 C 
ENDBRANCH   1  14
BRANCH   4  20
ATOM     20  C   UNL     1      34.693  25.108  11.228  0.00  0.00    +0.285 C 
ATOM     21  O   UNL     1      35.115  26.146  10.686  0.00  0.00    -0.267 OA
ATOM     22  N   UNL     1      35.506  24.247  11.830  0.00  0.00    -0.084 NA
ENDBRANCH   4  20
BRANCH   3  23
ATOM     23  N   UNL     1      32.937  25.909   9.058  0.00  0.00    -0.239 NA
BRANCH  23  24
ATOM     24  C   UNL     1      32.191  26.461   7.932  0.00  0.00    +0.093 C 
ATOM     25  C   UNL     1      33.077  26.552   6.696  0.00  0.00    +0.024 C 
ATOM     26  C   UNL     1      32.340  27.199   5.515  0.00  0.00    +0.035 C 
ATOM     27  C   UNL     1      31.789  28.566   5.881  0.00  0.00    +0.152 C 
ATOM     28  C   UNL     1      30.907  28.496   7.115  0.00  0.00    +0.035 C 
ATOM     29  O   UNL     1      31.041  29.095   4.783  0.00  0.00    -0.223 OA
ATOM     30  C   UNL     1      31.633  27.835   8.294  0.00  0.00    +0.024 C 
ENDBRANCH  23  24
ENDBRANCH   3  23
TORSDOF 4
