@<TRIPOS>MOLECULE
/web/media/ligands/5T21_ligand.pdb
 30 33 0 0 0
SMALL
GASTEIGER

@<TRIPOS>ATOM
      1 C          26.1930   24.7670   14.3830 C.3     1  UNL1        0.0695
      2 C          28.1920   24.3750   12.4120 C.ar    1  UNL1        0.0438
      3 C          26.8870   24.1440   12.0060 C.ar    1  UNL1        0.0442
      4 C          26.9370   23.7000   10.6390 C.ar    1  UNL1       -0.0005
      5 C          28.2590   23.6730   10.2840 C.ar    1  UNL1        0.0756
      6 C          27.8490   25.7520   15.9850 C.3     1  UNL1        0.0008
      7 C          27.2260   27.0130   13.9310 C.3     1  UNL1        0.0008
      8 C          30.4740   24.2660   11.2740 C.ar    1  UNL1        0.0650
      9 C          31.2970   23.8320   12.3130 C.ar    1  UNL1        0.0177
     10 C          32.6550   24.1020   12.2780 C.ar    1  UNL1        0.0074
     11 C          25.8080   24.3890   12.9730 C.2     1  UNL1        0.1739
     12 C          28.5970   24.9130   13.7510 C.3     1  UNL1        0.0446
     13 C          27.4650   25.6160   14.5120 C.3     1  UNL1        0.0128
     14 N          29.0440   24.0870   11.3440 N.ar    1  UNL1       -0.3087
     15 O          24.6280   24.3690   12.6510 O.2     1  UNL1       -0.2913
     16 C          33.2240   24.7920   11.2010 C.ar    1  UNL1        0.0716
     17 C          32.3950   25.2150   10.1360 C.ar    1  UNL1        0.0711
     18 C          31.0250   24.9400   10.1830 C.ar    1  UNL1        0.0337
     19 C          34.6930   25.1080   11.2280 C.2     1  UNL1        0.2854
     20 N          35.5060   24.2470   11.8300 N.am    1  UNL1       -0.0837
     21 N          32.9370   25.9090    9.0580 N.pl3   1  UNL1       -0.2392
     22 C          32.1910   26.4610    7.9320 C.3     1  UNL1        0.0926
     23 C          31.6330   27.8350    8.2940 C.3     1  UNL1        0.0242
     24 C          30.9070   28.4960    7.1150 C.3     1  UNL1        0.0346
     25 C          31.7890   28.5660    5.8810 C.3     1  UNL1        0.1521
     26 C          32.3400   27.1990    5.5150 C.3     1  UNL1        0.0346
     27 C          33.0770   26.5520    6.6960 C.3     1  UNL1        0.0242
     28 O          31.0410   29.0950    4.7830 O.3     1  UNL1       -0.2231
     29 C          25.7810   23.3420    9.7370 C.3     1  UNL1        0.0327
     30 O          35.1150   26.1460   10.6860 O.2     1  UNL1       -0.2666
@<TRIPOS>BOND
     1     1    13    1
     2     2    12    1
     3     3     2   ar
     4     3    11    1
     5     4     3   ar
     6     5     4   ar
     7     5    14   ar
     8     7    13    1
     9     8    14    1
    10     8     9   ar
    11    10     9   ar
    12    11     1    1
    13    12    13    1
    14    13     6    1
    15    14     2   ar
    16    15    11    2
    17    16    19    1
    18    16    10   ar
    19    17    18   ar
    20    17    16   ar
    21    18     8   ar
    22    19    20   am
    23    21    17    1
    24    22    23    1
    25    22    21    1
    26    24    23    1
    27    25    28    1
    28    25    24    1
    29    26    25    1
    30    26    27    1
    31    27    22    1
    32    29     4    1
    33    30    19    2
