/web/media/ligands/5UGS_ligand.pdb
 OpenBabel04242009293D

 48 54  0  0  0  0  0  0  0  0999 V2000
   27.9210  -24.9410  -56.0430 C   0  0  0  0  0  0  0  0  0  0  0  0
   28.2050  -26.1860  -55.4310 C   0  0  0  0  0  0  0  0  0  0  0  0
   27.7670  -26.1570  -56.7760 C   0  0  0  0  0  0  0  0  0  0  0  0
   28.8230  -26.5130  -57.7790 C   0  0  0  0  0  0  0  0  0  0  0  0
   29.4060  -27.6670  -57.9750 C   0  0  0  0  0  0  0  0  0  0  0  0
   29.3380  -25.6660  -58.6120 N   0  0  0  0  0  0  0  0  0  0  0  0
   30.1150  -26.2310  -59.2300 N   0  0  0  0  0  0  0  0  0  0  0  0
   30.2470  -27.4160  -58.9640 N   0  0  0  0  0  0  0  0  0  0  0  0
   31.2660  -28.2130  -59.7030 C   0  0  0  0  0  0  0  0  0  0  0  0
   30.6260  -28.9290  -60.7370 C   0  0  0  0  0  0  0  0  0  0  0  0
   30.1690  -30.2410  -60.5280 C   0  0  0  0  0  0  0  0  0  0  0  0
   29.5320  -30.9260  -61.5540 C   0  0  0  0  0  0  0  0  0  0  0  0
   29.0400  -32.1750  -61.3860 O   0  0  0  0  0  0  0  0  0  0  0  0
   30.4400  -28.3530  -61.9940 C   0  0  0  0  0  0  0  0  0  0  0  0
   29.8090  -29.0360  -63.0220 C   0  0  0  0  0  0  0  0  0  0  0  0
   29.3470  -30.3160  -62.7910 C   0  0  0  0  0  0  0  0  0  0  0  0
   28.7020  -31.0100  -63.7580 O   0  0  0  0  0  0  0  0  0  0  0  0
   27.3100  -31.0060  -63.7160 C   0  0  0  0  0  0  0  0  0  0  0  0
   26.5620  -30.4460  -62.6840 C   0  0  0  0  0  0  0  0  0  0  0  0
   25.1800  -30.4900  -62.7040 C   0  0  0  0  0  0  0  0  0  0  0  0
   24.4940  -31.1030  -63.7480 C   0  0  0  0  0  0  0  0  0  0  0  0
   25.2220  -31.6860  -64.7800 C   0  0  0  0  0  0  0  0  0  0  0  0
   26.6260  -31.6530  -64.7760 C   0  0  0  0  0  0  0  0  0  0  0  0
   27.3070  -32.2290  -65.8650 C   0  0  0  0  0  0  0  0  0  0  0  0
   23.4740  -26.1510  -75.4170 C   0  0  0  0  0  0  0  0  0  0  0  0
   23.9890  -27.3820  -75.9440 C   0  0  0  0  0  0  0  0  0  0  0  0
   23.8610  -26.2330  -76.7600 C   0  0  0  0  0  0  0  0  0  0  0  0
   25.1160  -25.4150  -77.1470 C   0  0  0  0  0  0  0  0  0  0  0  0
   26.3970  -25.7110  -76.9640 C   0  0  0  0  0  0  0  0  0  0  0  0
   25.0400  -24.2510  -77.7660 N   0  0  0  0  0  0  0  0  0  0  0  0
   26.2140  -23.8830  -77.9610 N   0  0  0  0  0  0  0  0  0  0  0  0
   27.0290  -24.6800  -77.5210 N   0  0  0  0  0  0  0  0  0  0  0  0
   28.3880  -24.4090  -77.6390 C   0  0  0  0  0  0  0  0  0  0  0  0
   28.7820  -23.5040  -76.6040 C   0  0  0  0  0  0  0  0  0  0  0  0
   30.0980  -23.0340  -76.6880 C   0  0  0  0  0  0  0  0  0  0  0  0
   30.6180  -22.1460  -75.7420 C   0  0  0  0  0  0  0  0  0  0  0  0
   31.9090  -21.6650  -75.8520 O   0  0  0  0  0  0  0  0  0  0  0  0
   27.9840  -23.0850  -75.5120 C   0  0  0  0  0  0  0  0  0  0  0  0
   28.4980  -22.2030  -74.5580 C   0  0  0  0  0  0  0  0  0  0  0  0
   29.8240  -21.7180  -74.6610 C   0  0  0  0  0  0  0  0  0  0  0  0
   30.4360  -20.8300  -73.7770 O   0  0  0  0  0  0  0  0  0  0  0  0
   30.1180  -20.9810  -72.4640 C   0  0  0  0  0  0  0  0  0  0  0  0
   30.7210  -21.9990  -71.7200 C   0  0  0  0  0  0  0  0  0  0  0  0
   30.3550  -22.1150  -70.3760 C   0  0  0  0  0  0  0  0  0  0  0  0
   29.4010  -21.2360  -69.8090 C   0  0  0  0  0  0  0  0  0  0  0  0
   28.7970  -20.2120  -70.5690 C   0  0  0  0  0  0  0  0  0  0  0  0
   29.1710  -20.0960  -71.9070 C   0  0  0  0  0  0  0  0  0  0  0  0
   28.5750  -19.0810  -72.6140 C   0  0  0  0  0  0  0  0  0  0  0  0
  1  2  1  0  0  0  0
  3  1  1  0  0  0  0
  3  2  1  0  0  0  0
  4  3  1  0  0  0  0
  5  4  2  0  0  0  0
  6  4  1  0  0  0  0
  7  8  1  0  0  0  0
  7  6  2  0  0  0  0
  8  5  1  0  0  0  0
  9  8  1  0  0  0  0
 10 11  1  0  0  0  0
 10  9  1  0  0  0  0
 12 13  1  0  0  0  0
 12 11  2  0  0  0  0
 14 10  2  0  0  0  0
 15 16  2  0  0  0  0
 15 14  1  0  0  0  0
 16 12  1  0  0  0  0
 17 18  1  0  0  0  0
 17 16  1  0  0  0  0
 18 19  2  0  0  0  0
 20 19  1  0  0  0  0
 21 20  2  0  0  0  0
 22 23  2  0  0  0  0
 22 21  1  0  0  0  0
 23 18  1  0  0  0  0
 24 23  1  0  0  0  0
 26 25  1  0  0  0  0
 27 26  1  0  0  0  0
 27 25  1  0  0  0  0
 28 29  2  0  0  0  0
 28 27  1  0  0  0  0
 30 28  1  0  0  0  0
 31 30  2  0  0  0  0
 31 32  1  0  0  0  0
 32 29  1  0  0  0  0
 33 32  1  0  0  0  0
 33 34  1  0  0  0  0
 34 38  1  0  0  0  0
 35 34  2  0  0  0  0
 35 36  1  0  0  0  0
 36 40  2  0  0  0  0
 37 36  1  0  0  0  0
 38 39  2  0  0  0  0
 40 39  1  0  0  0  0
 40 41  1  0  0  0  0
 41 42  1  0  0  0  0
 42 47  2  0  0  0  0
 42 43  1  0  0  0  0
 43 44  2  0  0  0  0
 44 45  1  0  0  0  0
 46 45  2  0  0  0  0
 47 46  1  0  0  0  0
 48 47  1  0  0  0  0
M  END
>  <REMARK>
 800 SITE_DESCRIPTION: binding site for residue XT5 A 302                 
 800 SITE_DESCRIPTION: binding site for residue XT5 A 303                 
 800 SITE_DESCRIPTION: binding site for residue XT5 B 302                 
 800 SITE_DESCRIPTION: binding site for residue XT5 E 302                 
 800 SITE_DESCRIPTION: binding site for residue XT5 G 302                 
 800 SITE_DESCRIPTION: binding site for residue XT5 C 302                 
 800 SITE_DESCRIPTION: binding site for residue XT5 D 302                 

>  <HET>
 XT5  A 302      24                                                       
 XT5  A 303      24                                                       
 XT5  B 302      24                                                       
 XT5  E 302      24                                                       
 XT5  G 302      24                                                       
 XT5  C 302      24                                                       
 XT5  D 302      24                                                       

>  <HETNAM>
     XT5 5-[(4-CYCLOPROPYL-1,2,3-TRIAZOL-1-YL)METHYL]-2-(2-               
   2 XT5  METHYLPHENOXY)PHENOL                                            

>  <FORMUL>
   8  XT5    7(C19 H19 N3 O2)                                             

>  <SITE>
   6 AC1 25 THR A 196  LEU A 197  ALA A 198  XT5 A 302                    
   6 AC7 25 THR B 196  ALA B 198  XT5 B 302  HOH B 408                    
   6 AD2 26 ILE E 194  THR E 196  ALA E 198  XT5 E 302                    
   6 AD4 26 ALA G 198  XT5 G 302  HOH G 402  HOH G 403                    
   6 AD8 26 LEU C 197  ALA C 198  XT5 C 302  HOH C 402                    
   6 AE4 25 ILE D 194  THR D 196  ALA D 198  XT5 D 302                    

$$$$
