@<TRIPOS>MOLECULE
/web/media/ligands/5UGS_ligand.pdb
 48 54 0 0 0
SMALL
GASTEIGER

@<TRIPOS>ATOM
      1 C          27.9210  -24.9410  -56.0430 C.3     1  UNL1        0.0064
      2 C          28.2050  -26.1860  -55.4310 C.3     1  UNL1        0.0064
      3 C          27.7670  -26.1570  -56.7760 C.3     1  UNL1        0.0437
      4 C          28.8230  -26.5130  -57.7790 C.ar    1  UNL1        0.1005
      5 C          29.4060  -27.6670  -57.9750 C.ar    1  UNL1        0.1135
      6 N          29.3380  -25.6660  -58.6120 N.ar    1  UNL1       -0.1331
      7 N          30.1150  -26.2310  -59.2300 N.ar    1  UNL1       -0.0638
      8 N          30.2470  -27.4160  -58.9640 N.ar    1  UNL1       -0.2261
      9 C          31.2660  -28.2130  -59.7030 C.3     1  UNL1        0.1557
     10 C          30.6260  -28.9290  -60.7370 C.ar    1  UNL1        0.0055
     11 C          30.1690  -30.2410  -60.5280 C.ar    1  UNL1        0.0429
     12 C          29.5320  -30.9260  -61.5540 C.ar    1  UNL1        0.2296
     13 O          29.0400  -32.1750  -61.3860 O.3     1  UNL1       -0.2833
     14 C          30.4400  -28.3530  -61.9940 C.ar    1  UNL1        0.0010
     15 C          29.8090  -29.0360  -63.0220 C.ar    1  UNL1        0.0406
     16 C          29.3470  -30.3160  -62.7910 C.ar    1  UNL1        0.1839
     17 O          28.7020  -31.0100  -63.7580 O.3     1  UNL1       -0.4506
     18 C          27.3100  -31.0060  -63.7160 C.ar    1  UNL1        0.1414
     19 C          26.5620  -30.4460  -62.6840 C.ar    1  UNL1        0.0372
     20 C          25.1800  -30.4900  -62.7040 C.ar    1  UNL1        0.0031
     21 C          24.4940  -31.1030  -63.7480 C.ar    1  UNL1       -0.0001
     22 C          25.2220  -31.6860  -64.7800 C.ar    1  UNL1       -0.0012
     23 C          26.6260  -31.6530  -64.7760 C.ar    1  UNL1        0.0127
     24 C          27.3070  -32.2290  -65.8650 C.3     1  UNL1        0.0342
     25 C          23.4740  -26.1510  -75.4170 C.3     2  UNL2        0.0064
     26 C          23.9890  -27.3820  -75.9440 C.3     2  UNL2        0.0064
     27 C          23.8610  -26.2330  -76.7600 C.3     2  UNL2        0.0437
     28 C          25.1160  -25.4150  -77.1470 C.ar    2  UNL2        0.1005
     29 C          26.3970  -25.7110  -76.9640 C.ar    2  UNL2        0.1135
     30 N          25.0400  -24.2510  -77.7660 N.ar    2  UNL2       -0.1331
     31 N          26.2140  -23.8830  -77.9610 N.ar    2  UNL2       -0.0638
     32 N          27.0290  -24.6800  -77.5210 N.ar    2  UNL2       -0.2261
     33 C          28.3880  -24.4090  -77.6390 C.3     2  UNL2        0.1557
     34 C          28.7820  -23.5040  -76.6040 C.ar    2  UNL2        0.0055
     35 C          30.0980  -23.0340  -76.6880 C.ar    2  UNL2        0.0429
     36 C          30.6180  -22.1460  -75.7420 C.ar    2  UNL2        0.2296
     37 O          31.9090  -21.6650  -75.8520 O.3     2  UNL2       -0.2833
     38 C          27.9840  -23.0850  -75.5120 C.ar    2  UNL2        0.0010
     39 C          28.4980  -22.2030  -74.5580 C.ar    2  UNL2        0.0406
     40 C          29.8240  -21.7180  -74.6610 C.ar    2  UNL2        0.1839
     41 O          30.4360  -20.8300  -73.7770 O.3     2  UNL2       -0.4506
     42 C          30.1180  -20.9810  -72.4640 C.ar    2  UNL2        0.1414
     43 C          30.7210  -21.9990  -71.7200 C.ar    2  UNL2        0.0372
     44 C          30.3550  -22.1150  -70.3760 C.ar    2  UNL2        0.0031
     45 C          29.4010  -21.2360  -69.8090 C.ar    2  UNL2       -0.0001
     46 C          28.7970  -20.2120  -70.5690 C.ar    2  UNL2       -0.0012
     47 C          29.1710  -20.0960  -71.9070 C.ar    2  UNL2        0.0127
     48 C          28.5750  -19.0810  -72.6140 C.3     2  UNL2        0.0342
@<TRIPOS>BOND
     1     1     2    1
     2     3     1    1
     3     3     2    1
     4     4     3    1
     5     5     4   ar
     6     6     4   ar
     7     7     8   ar
     8     7     6   ar
     9     8     5   ar
    10     9     8    1
    11    10    11   ar
    12    10     9    1
    13    12    13    1
    14    12    11   ar
    15    14    10   ar
    16    15    16   ar
    17    15    14   ar
    18    16    12   ar
    19    17    18    1
    20    17    16    1
    21    18    19   ar
    22    20    19   ar
    23    21    20   ar
    24    22    23   ar
    25    22    21   ar
    26    23    18   ar
    27    24    23    1
    28    26    25    1
    29    27    26    1
    30    27    25    1
    31    28    29   ar
    32    28    27    1
    33    30    28   ar
    34    31    30   ar
    35    31    32   ar
    36    32    29   ar
    37    33    32    1
    38    33    34    1
    39    34    38   ar
    40    35    34   ar
    41    35    36   ar
    42    36    40   ar
    43    37    36    1
    44    38    39   ar
    45    40    39   ar
    46    40    41    1
    47    41    42    1
    48    42    47   ar
    49    42    43   ar
    50    43    44   ar
    51    44    45   ar
    52    46    45   ar
    53    47    46   ar
    54    48    47    1
