/web/media/ligands/5UGT_ligand.pdb
 OpenBabel04242009293D

 24 27  0  0  0  0  0  0  0  0999 V2000
  -28.9320    1.5180  -40.3990 Cl  0  0  0  0  0  0  0  0  0  0  0  0
  -29.2330    2.4740  -41.9270 C   0  0  0  0  0  0  0  0  0  0  0  0
  -30.1680    2.0840  -42.8440 C   0  0  0  0  0  0  0  0  0  0  0  0
  -30.3680    2.8370  -43.9980 C   0  0  0  0  0  0  0  0  0  0  0  0
  -29.6180    3.9710  -44.2400 C   0  0  0  0  0  0  0  0  0  0  0  0
  -28.6750    4.3810  -43.3170 C   0  0  0  0  0  0  0  0  0  0  0  0
  -28.5010    3.6280  -42.1800 C   0  0  0  0  0  0  0  0  0  0  0  0
  -27.6260    3.9040  -41.1910 O   0  0  0  0  0  0  0  0  0  0  0  0
  -26.9780    5.0600  -41.0090 C   0  0  0  0  0  0  0  0  0  0  0  0
  -27.6930    6.2180  -40.7420 C   0  0  0  0  0  0  0  0  0  0  0  0
  -27.0150    7.3940  -40.5030 C   0  0  0  0  0  0  0  0  0  0  0  0
  -29.0360    6.1490  -40.7500 O   0  0  0  0  0  0  0  0  0  0  0  0
  -25.6060    5.0320  -41.0050 C   0  0  0  0  0  0  0  0  0  0  0  0
  -24.9260    6.1950  -40.7800 C   0  0  0  0  0  0  0  0  0  0  0  0
  -25.6180    7.3780  -40.5310 C   0  0  0  0  0  0  0  0  0  0  0  0
  -24.8810    8.5260  -40.3240 C   0  0  0  0  0  0  0  0  0  0  0  0
  -24.2860    8.9110  -41.6650 N   0  0  0  0  0  0  0  0  0  0  0  0
  -24.9030    9.2170  -42.8290 C   0  0  0  0  0  0  0  0  0  0  0  0
  -23.0710    8.9690  -41.8120 N   0  0  0  0  0  0  0  0  0  0  0  0
  -22.8000    9.2920  -43.0210 N   0  0  0  0  0  0  0  0  0  0  0  0
  -23.9250    9.4560  -43.6730 C   0  0  0  0  0  0  0  0  0  0  0  0
  -23.9580    9.8960  -45.0970 C   0  0  0  0  0  0  0  0  0  0  0  0
  -23.6610   11.3840  -45.1890 C   0  0  0  0  0  0  0  0  0  0  0  0
  -24.9860   10.8850  -45.6500 C   0  0  0  0  0  0  0  0  0  0  0  0
  2  1  1  0  0  0  0
  3  2  2  0  0  0  0
  4  3  1  0  0  0  0
  5  4  2  0  0  0  0
  5  6  1  0  0  0  0
  6  7  2  0  0  0  0
  7  2  1  0  0  0  0
  7  8  1  0  0  0  0
  8  9  1  0  0  0  0
  9 13  2  0  0  0  0
  9 10  1  0  0  0  0
 10 11  2  0  0  0  0
 12 10  1  0  0  0  0
 13 14  1  0  0  0  0
 14 15  2  0  0  0  0
 15 11  1  0  0  0  0
 15 16  1  0  0  0  0
 17 16  1  0  0  0  0
 18 17  1  0  0  0  0
 19 17  1  0  0  0  0
 20 19  2  0  0  0  0
 21 20  1  0  0  0  0
 21 18  2  0  0  0  0
 22 21  1  0  0  0  0
 23 22  1  0  0  0  0
 24 23  1  0  0  0  0
 24 22  1  0  0  0  0
M  END
>  <REMARK>
 800 SITE_DESCRIPTION: binding site for residue XTW A 302                 
 800 SITE_DESCRIPTION: binding site for residue XTW B 302                 
 800 SITE_DESCRIPTION: binding site for residue XTW E 302                 
 800 SITE_DESCRIPTION: binding site for residue XTW G 302                 

>  <HET>
 XTW  A 302      24                                                       
 XTW  B 302      24                                                       
 XTW  E 302      24                                                       
 XTW  G 302      24                                                       

>  <HETNAM>
     XTW 2-(2-CHLORANYLPHENOXY)-5-[(4-CYCLOPROPYL-1,2,3-TRIAZOL-          
   2 XTW  1-YL)METHYL]PHENOL                                              

>  <FORMUL>
   6  XTW    4(C18 H16 CL N3 O2)                                          

>  <SITE>
   6 AC1 24 THR A 196  ALA A 198  XTW A 302  HOH A 413                    
   6 AC3 23 LEU B 197  ALA B 198  XTW B 302                               
   6 AC5 28 ILE E 194  THR E 196  ALA E 198  XTW E 302                    
   6 AC7 23 THR G 196  ALA G 198  XTW G 302                               

$$$$
