@<TRIPOS>MOLECULE
/web/media/ligands/5UGT_ligand.pdb
 24 27 0 0 0
SMALL
GASTEIGER

@<TRIPOS>ATOM
      1 CL        -28.9320    1.5180  -40.3990 Cl      1  UNL1       -0.0791
      2 C         -29.2330    2.4740  -41.9270 C.ar    1  UNL1        0.0921
      3 C         -30.1680    2.0840  -42.8440 C.ar    1  UNL1        0.0145
      4 C         -30.3680    2.8370  -43.9980 C.ar    1  UNL1        0.0011
      5 C         -29.6180    3.9710  -44.2400 C.ar    1  UNL1        0.0032
      6 C         -28.6750    4.3810  -43.3170 C.ar    1  UNL1        0.0384
      7 C         -28.5010    3.6280  -42.1800 C.ar    1  UNL1        0.1559
      8 O         -27.6260    3.9040  -41.1910 O.3     1  UNL1       -0.4494
      9 C         -26.9780    5.0600  -41.0090 C.ar    1  UNL1        0.1839
     10 C         -27.6930    6.2180  -40.7420 C.ar    1  UNL1        0.2296
     11 C         -27.0150    7.3940  -40.5030 C.ar    1  UNL1        0.0429
     12 O         -29.0360    6.1490  -40.7500 O.3     1  UNL1       -0.2833
     13 C         -25.6060    5.0320  -41.0050 C.ar    1  UNL1        0.0406
     14 C         -24.9260    6.1950  -40.7800 C.ar    1  UNL1        0.0010
     15 C         -25.6180    7.3780  -40.5310 C.ar    1  UNL1        0.0055
     16 C         -24.8810    8.5260  -40.3240 C.3     1  UNL1        0.1557
     17 N         -24.2860    8.9110  -41.6650 N.ar    1  UNL1       -0.2261
     18 C         -24.9030    9.2170  -42.8290 C.ar    1  UNL1        0.1135
     19 N         -23.0710    8.9690  -41.8120 N.ar    1  UNL1       -0.0638
     20 N         -22.8000    9.2920  -43.0210 N.ar    1  UNL1       -0.1331
     21 C         -23.9250    9.4560  -43.6730 C.ar    1  UNL1        0.1005
     22 C         -23.9580    9.8960  -45.0970 C.3     1  UNL1        0.0437
     23 C         -23.6610   11.3840  -45.1890 C.3     1  UNL1        0.0064
     24 C         -24.9860   10.8850  -45.6500 C.3     1  UNL1        0.0064
@<TRIPOS>BOND
     1     2     1    1
     2     3     2   ar
     3     4     3   ar
     4     5     4   ar
     5     5     6   ar
     6     6     7   ar
     7     7     2   ar
     8     7     8    1
     9     8     9    1
    10     9    13   ar
    11     9    10   ar
    12    10    11   ar
    13    12    10    1
    14    13    14   ar
    15    14    15   ar
    16    15    11   ar
    17    15    16    1
    18    17    16    1
    19    18    17   ar
    20    19    17   ar
    21    20    19   ar
    22    21    20   ar
    23    21    18   ar
    24    22    21    1
    25    23    22    1
    26    24    23    1
    27    24    22    1
