REMARK  Name = /web/media/ligands/5UGU_ligand.pdb
REMARK  6 active torsions:
REMARK  status: ('A' for Active; 'I' for Inactive)
REMARK    1  A    between atoms: C_2  and  C_3
REMARK    2  A    between atoms: C_8  and  O_9
REMARK    3  A    between atoms: O_9  and  C_10
REMARK    4  A    between atoms: C_16  and  C_17
REMARK    5  A    between atoms: C_17  and  N_18
REMARK    6  A    between atoms: C_22  and  C_23
REMARK                            x       y       z     vdW  Elec       q    Type
REMARK                         _______ _______ _______ _____ _____    ______ ____
ROOT
ATOM      1  C   UNL     1     -18.384   3.717 -12.391  0.00  0.00    +0.184 A 
ATOM      2  C   UNL     1     -18.368   3.139 -13.646  0.00  0.00    +0.041 A 
ATOM      3  C   UNL     1     -17.245   2.495 -14.153  0.00  0.00    +0.001 A 
ATOM      4  C   UNL     1     -16.060   2.504 -13.405  0.00  0.00    +0.006 A 
ATOM      5  C   UNL     1     -16.072   3.095 -12.145  0.00  0.00    +0.043 A 
ATOM      6  C   UNL     1     -17.207   3.695 -11.598  0.00  0.00    +0.230 A 
ATOM      7  O   UNL     1     -17.191   4.330 -10.376  0.00  0.00    -0.283 OA
ENDROOT
BRANCH   4   8
ATOM      8  C   UNL     1     -14.916   1.845 -13.896  0.00  0.00    +0.156 C 
BRANCH   8   9
ATOM      9  N   UNL     1     -14.250   2.639 -14.938  0.00  0.00    -0.226 N 
ATOM     10  N   UNL     1     -14.255   2.185 -16.133  0.00  0.00    -0.064 NA
ATOM     11  N   UNL     1     -13.712   2.977 -16.925  0.00  0.00    -0.133 NA
ATOM     12  C   UNL     1     -13.283   3.993 -16.221  0.00  0.00    +0.100 A 
ATOM     13  C   UNL     1     -13.620   3.819 -14.930  0.00  0.00    +0.114 A 
BRANCH  12  14
ATOM     14  C   UNL     1     -12.507   5.107 -16.896  0.00  0.00    +0.044 C 
ATOM     15  C   UNL     1     -11.495   5.903 -16.150  0.00  0.00    +0.006 C 
ATOM     16  C   UNL     1     -12.847   6.504 -16.440  0.00  0.00    +0.006 C 
ENDBRANCH  12  14
ENDBRANCH   8   9
ENDBRANCH   4   8
BRANCH   1  17
ATOM     17  O   UNL     1     -19.538   4.327 -11.905  0.00  0.00    -0.450 OA
BRANCH  17  19
ATOM     18  C   UNL     1     -20.518   6.298 -11.044  0.00  0.00    +0.103 A 
ATOM     19  C   UNL     1     -19.486   5.696 -11.785  0.00  0.00    +0.155 A 
ATOM     20  C   UNL     1     -18.529   6.503 -12.389  0.00  0.00    +0.038 A 
ATOM     21  C   UNL     1     -18.614   7.878 -12.128  0.00  0.00    +0.003 A 
ATOM     22  C   UNL     1     -19.632   8.513 -11.418  0.00  0.00    +0.001 A 
ATOM     23  C   UNL     1     -20.595   7.677 -10.863  0.00  0.00    +0.013 A 
BRANCH  18  25
ATOM     24  N   UNL     1     -22.311   4.924 -10.037  0.00  0.00    -0.191 NA
ATOM     25  C   UNL     1     -21.559   5.497 -10.458  0.00  0.00    +0.103 C 
ENDBRANCH  18  25
ENDBRANCH  17  19
ENDBRANCH   1  17
TORSDOF 6
