@<TRIPOS>MOLECULE
/web/media/ligands/6B1E_ligand.pdb
 22 25 0 0 0
SMALL
GASTEIGER

@<TRIPOS>ATOM
      1 O          36.7730   52.0420   36.3790 O.2     1  UNL1       -0.2733
      2 C          37.0330   50.9960   35.7850 C.2     1  UNL1        0.2436
      3 N          36.2240   49.8830   35.8120 N.am    1  UNL1       -0.2746
      4 C          36.4910   48.6330   35.0980 C.3     1  UNL1        0.0938
      5 C          35.2000   47.8100   35.2720 C.3     1  UNL1        0.0236
      6 C          34.1500   48.8630   35.6320 C.3     1  UNL1        0.0278
      7 C          34.9350   49.8510   36.4880 C.3     1  UNL1        0.1186
      8 C          35.1110   49.4970   37.9560 C.2     1  UNL1        0.1152
      9 N          35.9170   48.6660   38.5030 N.2     1  UNL1       -0.1496
     10 C          38.2860   50.8230   34.9580 C.3     1  UNL1        0.1737
     11 N          39.2000   52.0090   35.0190 N.3     1  UNL1       -0.2112
     12 C          40.2550   51.8940   36.0790 C.3     1  UNL1        0.0623
     13 C          39.6770   51.4130   37.4360 C.3     1  UNL1        0.0162
     14 C          40.8330   51.2490   38.4390 C.3     1  UNL1        0.0038
     15 C          41.9260   50.3010   37.9000 C.3     1  UNL1        0.0003
     16 C          42.4940   50.8430   36.5820 C.3     1  UNL1        0.0038
     17 C          41.3010   50.8770   35.5890 C.3     1  UNL1        0.0162
     18 C          43.0540   52.2570   36.8180 C.3     1  UNL1        0.0305
     19 C          41.4370   52.6380   38.6810 C.3     1  UNL1        0.0305
     20 C          41.9780   53.1950   37.3670 C.3     1  UNL1        0.1279
     21 O          42.5030   54.4770   37.6430 O.3     1  UNL1       -0.2256
     22 C          40.8680   53.2900   36.3100 C.3     1  UNL1        0.0465
@<TRIPOS>BOND
     1     2     3   am
     2     2     1    2
     3     3     7    1
     4     4     5    1
     5     4     3    1
     6     5     6    1
     7     6     7    1
     8     7     8    1
     9     8     9    2
    10    10    11    1
    11    10     2    1
    12    12    11    1
    13    12    22    1
    14    12    13    1
    15    14    13    1
    16    14    19    1
    17    15    14    1
    18    16    17    1
    19    16    18    1
    20    16    15    1
    21    17    12    1
    22    18    20    1
    23    20    21    1
    24    20    19    1
    25    22    20    1
