REMARK  Name = /web/media/ligands/6B1E_ligand.pdb
REMARK  4 active torsions:
REMARK  status: ('A' for Active; 'I' for Inactive)
REMARK    1  A    between atoms: C_2  and  C_10
REMARK    2  A    between atoms: C_7  and  C_8
REMARK    3  A    between atoms: C_10  and  N_11
REMARK    4  A    between atoms: N_11  and  C_12
REMARK                            x       y       z     vdW  Elec       q    Type
REMARK                         _______ _______ _______ _____ _____    ______ ____
ROOT
ATOM      1  N   UNL     1      39.200  52.009  35.019  0.00  0.00    -0.211 NA
ENDROOT
BRANCH   1   2
ATOM      2  C   UNL     1      40.255  51.894  36.079  0.00  0.00    +0.062 C 
ATOM      3  C   UNL     1      41.301  50.877  35.589  0.00  0.00    +0.016 C 
ATOM      4  C   UNL     1      42.494  50.843  36.582  0.00  0.00    +0.004 C 
ATOM      5  C   UNL     1      41.926  50.301  37.900  0.00  0.00    +0.000 C 
ATOM      6  C   UNL     1      40.833  51.249  38.439  0.00  0.00    +0.004 C 
ATOM      7  C   UNL     1      41.437  52.638  38.681  0.00  0.00    +0.031 C 
ATOM      8  C   UNL     1      41.978  53.195  37.367  0.00  0.00    +0.128 C 
ATOM      9  O   UNL     1      42.503  54.477  37.643  0.00  0.00    -0.226 OA
ATOM     10  C   UNL     1      43.054  52.257  36.818  0.00  0.00    +0.031 C 
ATOM     11  C   UNL     1      39.677  51.413  37.436  0.00  0.00    +0.016 C 
ATOM     12  C   UNL     1      40.868  53.290  36.310  0.00  0.00    +0.046 C 
ENDBRANCH   1   2
BRANCH   1  13
ATOM     13  C   UNL     1      38.286  50.823  34.958  0.00  0.00    +0.174 C 
BRANCH  13  15
ATOM     14  O   UNL     1      36.773  52.042  36.379  0.00  0.00    -0.273 OA
ATOM     15  C   UNL     1      37.033  50.996  35.785  0.00  0.00    +0.244 C 
ATOM     16  N   UNL     1      36.224  49.883  35.812  0.00  0.00    -0.275 N 
ATOM     17  C   UNL     1      36.491  48.633  35.098  0.00  0.00    +0.094 C 
ATOM     18  C   UNL     1      35.200  47.810  35.272  0.00  0.00    +0.024 C 
ATOM     19  C   UNL     1      34.150  48.863  35.632  0.00  0.00    +0.028 C 
ATOM     20  C   UNL     1      34.935  49.851  36.488  0.00  0.00    +0.119 C 
BRANCH  20  21
ATOM     21  C   UNL     1      35.111  49.497  37.956  0.00  0.00    +0.115 C 
ATOM     22  N   UNL     1      35.917  48.666  38.503  0.00  0.00    -0.150 NA
ENDBRANCH  20  21
ENDBRANCH  13  15
ENDBRANCH   1  13
TORSDOF 4
