REMARK  Name = /web/media/ligands/6DJ1_ligand.pdb
REMARK  26 active torsions:
REMARK  status: ('A' for Active; 'I' for Inactive)
REMARK    1  A    between atoms: C_1  and  N_9
REMARK    2  A    between atoms: C_1  and  C_91
REMARK    3  A    between atoms: C_2  and  N_10
REMARK    4  A    between atoms: C_2  and  C_92
REMARK    5  A    between atoms: C_7  and  N_9
REMARK    6  A    between atoms: C_8  and  N_10
REMARK    7  A    between atoms: C_8  and  C_85
REMARK    8  A    between atoms: C_8  and  C_87
REMARK    9  A    between atoms: C_13  and  C_50
REMARK   10  A    between atoms: C_13  and  C_54
REMARK   11  A    between atoms: C_15  and  C_48
REMARK   12  A    between atoms: C_15  and  C_50
REMARK   13  A    between atoms: C_17  and  C_52
REMARK   14  A    between atoms: C_18  and  C_41
REMARK   15  A    between atoms: C_19  and  C_52
REMARK   16  A    between atoms: C_26  and  C_28
REMARK   17  A    between atoms: C_41  and  C_43
REMARK   18  A    between atoms: C_46  and  C_48
REMARK   19  A    between atoms: C_57  and  C_58
REMARK   20  A    between atoms: C_57  and  C_60
REMARK   21  A    between atoms: C_57  and  O_72
REMARK   22  A    between atoms: C_58  and  C_59
REMARK   23  A    between atoms: C_69  and  C_85
REMARK   24  A    between atoms: C_70  and  C_86
REMARK   25  A    between atoms: C_77  and  C_79
REMARK   26  A    between atoms: C_78  and  C_80
REMARK                            x       y       z     vdW  Elec       q    Type
REMARK                         _______ _______ _______ _____ _____    ______ ____
ROOT
ATOM      1  C   UNL     1      13.483  18.589  64.617  0.00  0.00    +0.172 C 
ENDROOT
BRANCH   1  23
ATOM      2  C   UNL     1       9.126  16.212  62.000  0.00  0.00    +0.073 C 
ATOM      3  C   UNL     1       9.107  15.886  60.692  0.00  0.00    +0.007 C 
ATOM      4  C   UNL     1       9.560  17.178  61.378  0.00  0.00    +0.129 C 
ATOM      5  O   UNL     1      10.131  17.004  62.430  0.00  0.00    -0.354 OA
ATOM      6  C   UNL     1       9.917  18.365  62.087  0.00  0.00    +0.141 C 
ATOM      7  C   UNL     1       9.893  18.283  63.624  0.00  0.00    +0.189 C 
ATOM      8  O   UNL     1       9.580  19.404  63.195  0.00  0.00    -0.306 OA
ATOM      9  N   UNL     1      10.646  18.043  64.714  0.00  0.00    -0.192 NA
ATOM     10  C   UNL     1      11.144  19.092  65.612  0.00  0.00    +0.075 C 
ATOM     11  C   UNL     1      10.624  19.812  66.189  0.00  0.00    +0.016 C 
ATOM     12  C   UNL     1      10.379  19.076  66.946  0.00  0.00    +0.003 C 
ATOM     13  C   UNL     1       9.681  18.842  66.513  0.00  0.00    +0.004 C 
ATOM     14  C   UNL     1       9.027  19.341  66.846  0.00  0.00    +0.022 C 
ATOM     15  C   UNL     1       8.348  19.196  66.651  0.00  0.00    -0.045 C 
ATOM     16  C   UNL     1       7.927  20.500  66.443  0.00  0.00    +0.018 C 
ATOM     17  C   UNL     1       8.567  20.661  66.908  0.00  0.00    +0.004 C 
ATOM     18  C   UNL     1       8.873  21.484  66.160  0.00  0.00    +0.000 C 
ATOM     19  C   UNL     1       8.077  18.338  66.801  0.00  0.00    -0.009 C 
ATOM     20  C   UNL     1      10.209  21.123  66.031  0.00  0.00    +0.001 C 
ATOM     21  C   UNL     1      11.963  19.450  66.072  0.00  0.00    +0.018 C 
ATOM     22  C   UNL     1      12.625  18.812  65.867  0.00  0.00    +0.022 C 
ATOM     23  C   UNL     1      12.469  19.592  64.627  0.00  0.00    +0.108 C 
ATOM     24  N   UNL     1      11.690  18.745  63.731  0.00  0.00    -0.169 NA
ATOM     25  C   UNL     1      11.007  19.244  62.691  0.00  0.00    +0.291 C 
ATOM     26  O   UNL     1      11.166  20.371  62.220  0.00  0.00    -0.176 OA
ATOM     27  C   UNL     1       9.357  17.079  62.883  0.00  0.00    +0.159 C 
BRANCH   2  29
ATOM     28  C   UNL     1       7.616  15.875  64.046  0.00  0.00    +0.217 C 
ATOM     29  C   UNL     1       8.027  15.971  62.801  0.00  0.00    +0.122 C 
ATOM     30  N   UNL     1       7.929  16.883  63.238  0.00  0.00    -0.211 NA
ATOM     31  O   UNL     1       8.478  15.097  64.534  0.00  0.00    -0.205 OA
ATOM     32  C   UNL     1       7.913  16.530  64.074  0.00  0.00    +0.137 C 
BRANCH  28  33
ATOM     33  N   UNL     1       6.281  15.664  64.358  0.00  0.00    -0.190 NA
BRANCH  33  34
ATOM     34  C   UNL     1       5.169  16.366  63.749  0.00  0.00    +0.091 C 
BRANCH  34  35
ATOM     35  C   UNL     1       5.605  17.105  62.487  0.00  0.00    +0.019 C 
ATOM     36  C   UNL     1       6.905  17.828  62.730  0.00  0.00    +0.002 C 
ENDBRANCH  34  35
ENDBRANCH  33  34
ENDBRANCH  28  33
ENDBRANCH   2  29
BRANCH  16  37
ATOM     37  C   UNL     1       7.207  20.941  66.842  0.00  0.00    +0.004 C 
BRANCH  37  38
ATOM     38  C   UNL     1       6.271  19.921  66.752  0.00  0.00    +0.000 C 
ATOM     39  C   UNL     1       6.702  18.602  66.722  0.00  0.00    +0.000 C 
ENDBRANCH  37  38
ENDBRANCH  16  37
ENDBRANCH   1  23
BRANCH   1  40
ATOM     40  O   UNL     1      14.065  17.853  65.141  0.00  0.00    -0.190 OA
ATOM     41  O   UNL     1      14.779  18.032  64.989  0.00  0.00    -0.035 OA
ENDBRANCH   1  40
BRANCH   1  42
ATOM     42  C   UNL     1      13.946  19.180  64.592  0.00  0.00    +0.052 C 
BRANCH  42  43
ATOM     43  C   UNL     1      13.746  19.799  63.727  0.00  0.00    +0.080 C 
ATOM     44  N   UNL     1      14.442  20.877  64.459  0.00  0.00    -0.166 NA
ATOM     45  C   UNL     1      13.871  22.072  64.695  0.00  0.00    +0.352 C 
ATOM     46  O   UNL     1      12.692  22.317  64.462  0.00  0.00    -0.169 OA
ATOM     47  O   UNL     1      14.146  23.234  63.459  0.00  0.00    -0.298 OA
ATOM     48  C   UNL     1      15.172  22.679  63.860  0.00  0.00    +0.220 C 
ATOM     49  N   UNL     1      15.541  21.442  63.521  0.00  0.00    -0.189 NA
ATOM     50  C   UNL     1      14.781  20.585  62.610  0.00  0.00    +0.075 C 
ATOM     51  C   UNL     1      14.596  19.457  62.496  0.00  0.00    +0.018 C 
ATOM     52  C   UNL     1      15.581  20.423  61.312  0.00  0.00    +0.003 C 
ATOM     53  C   UNL     1      14.903  20.557  61.673  0.00  0.00    +0.018 C 
ATOM     54  C   UNL     1      14.568  19.186  63.205  0.00  0.00    +0.019 C 
BRANCH  48  55
ATOM     55  C   UNL     1      16.128  23.387  64.815  0.00  0.00    +0.159 C 
ATOM     56  O   UNL     1      16.038  22.587  65.755  0.00  0.00    -0.354 OA
ATOM     57  C   UNL     1      16.877  23.573  66.105  0.00  0.00    +0.120 C 
ATOM     58  C   UNL     1      16.807  24.150  67.365  0.00  0.00    +0.043 C 
ATOM     59  C   UNL     1      15.858  23.790  68.346  0.00  0.00    +0.007 C 
ATOM     60  C   UNL     1      16.383  24.631  66.955  0.00  0.00    +0.006 C 
ATOM     61  C   UNL     1      15.375  24.130  65.916  0.00  0.00    +0.003 C 
ATOM     62  C   UNL     1      14.335  23.235  66.594  0.00  0.00    +0.003 C 
ATOM     63  C   UNL     1      14.800  23.145  65.266  0.00  0.00    +0.031 C 
BRANCH  58  64
ATOM     64  C   UNL     1      17.709  25.167  67.651  0.00  0.00    -0.029 C 
ATOM     65  C   UNL     1      18.628  25.640  66.702  0.00  0.00    -0.030 C 
ATOM     66  C   UNL     1      18.687  25.021  65.447  0.00  0.00    +0.030 C 
ENDBRANCH  58  64
BRANCH  57  67
ATOM     67  C   UNL     1      17.845  23.925  65.190  0.00  0.00    +0.051 C 
BRANCH  67  68
ATOM     68  C   UNL     1      18.329  24.032  63.986  0.00  0.00    +0.124 C 
BRANCH  68  69
ATOM     69  C   UNL     1      17.819  23.316  63.924  0.00  0.00    +0.258 C 
ATOM     70  O   UNL     1      18.846  23.055  64.531  0.00  0.00    -0.201 OA
ATOM     71  N   UNL     1      17.017  24.296  64.059  0.00  0.00    -0.095 NA
ENDBRANCH  68  69
BRANCH  68  72
ATOM     72  N   UNL     1      19.163  24.892  63.275  0.00  0.00    -0.215 NA
BRANCH  72  73
ATOM     73  C   UNL     1      18.775  26.265  62.873  0.00  0.00    +0.089 C 
BRANCH  73  74
ATOM     74  C   UNL     1      17.441  26.670  63.485  0.00  0.00    +0.019 C 
ATOM     75  C   UNL     1      16.471  25.486  63.366  0.00  0.00    +0.002 C 
ENDBRANCH  73  74
ENDBRANCH  72  73
ENDBRANCH  68  72
ENDBRANCH  67  68
ENDBRANCH  57  67
ENDBRANCH  48  55
BRANCH  52  76
ATOM     76  C   UNL     1      16.180  21.041  61.533  0.00  0.00    +0.000 C 
BRANCH  76  77
ATOM     77  C   UNL     1      15.960  21.626  60.747  0.00  0.00    +0.000 C 
BRANCH  77  78
ATOM     78  C   UNL     1      16.514  22.089  60.671  0.00  0.00    +0.000 C 
BRANCH  78  79
ATOM     79  C   UNL     1      17.296  22.036  60.835  0.00  0.00    +0.000 C 
BRANCH  79  80
ATOM     80  C   UNL     1      17.669  23.230  60.232  0.00  0.00    +0.000 C 
ATOM     81  C   UNL     1      16.755  23.973  59.494  0.00  0.00    +0.000 C 
ENDBRANCH  79  80
ENDBRANCH  78  79
ENDBRANCH  77  78
ENDBRANCH  76  77
ENDBRANCH  52  76
ENDBRANCH  42  43
ENDBRANCH   1  42
TORSDOF 23
REMARK  Name = /web/media/ligands/6DJ1_ligand.pdb
REMARK  26 active torsions:
REMARK  status: ('A' for Active; 'I' for Inactive)
REMARK    1  A    between atoms: C_1  and  N_9
REMARK    2  A    between atoms: C_1  and  C_91
REMARK    3  A    between atoms: C_2  and  N_10
REMARK    4  A    between atoms: C_2  and  C_92
REMARK    5  A    between atoms: C_7  and  N_9
REMARK    6  A    between atoms: C_8  and  N_10
REMARK    7  A    between atoms: C_8  and  C_85
REMARK    8  A    between atoms: C_8  and  C_87
REMARK    9  A    between atoms: C_13  and  C_50
REMARK   10  A    between atoms: C_13  and  C_54
REMARK   11  A    between atoms: C_15  and  C_48
REMARK   12  A    between atoms: C_15  and  C_50
REMARK   13  A    between atoms: C_17  and  C_52
REMARK   14  A    between atoms: C_18  and  C_41
REMARK   15  A    between atoms: C_19  and  C_52
REMARK   16  A    between atoms: C_26  and  C_28
REMARK   17  A    between atoms: C_41  and  C_43
REMARK   18  A    between atoms: C_46  and  C_48
REMARK   19  A    between atoms: C_57  and  C_58
REMARK   20  A    between atoms: C_57  and  C_60
REMARK   21  A    between atoms: C_57  and  O_72
REMARK   22  A    between atoms: C_58  and  C_59
REMARK   23  A    between atoms: C_69  and  C_85
REMARK   24  A    between atoms: C_70  and  C_86
REMARK   25  A    between atoms: C_77  and  C_79
REMARK   26  A    between atoms: C_78  and  C_80
REMARK                            x       y       z     vdW  Elec       q    Type
REMARK                         _______ _______ _______ _____ _____    ______ ____
ROOT
ATOM      1  C   UNL     1      15.072  22.343  59.953  0.00  0.00    +0.026 C 
ENDROOT
BRANCH   1   2
ATOM      2  C   UNL     1      15.524  22.711  59.903  0.00  0.00    -0.026 C 
ATOM      3  C   UNL     1      15.438  23.538  59.356  0.00  0.00    -0.005 C 
ENDBRANCH   1   2
BRANCH   1   4
ATOM      4  C   UNL     1      14.232  22.235  60.034  0.00  0.00    +0.005 C 
ATOM      5  C   UNL     1      13.937  21.130  60.837  0.00  0.00    +0.000 C 
ENDBRANCH   1   4
TORSDOF 2
REMARK  Name = /web/media/ligands/6DJ1_ligand.pdb
REMARK  26 active torsions:
REMARK  status: ('A' for Active; 'I' for Inactive)
REMARK    1  A    between atoms: C_1  and  N_9
REMARK    2  A    between atoms: C_1  and  C_91
REMARK    3  A    between atoms: C_2  and  N_10
REMARK    4  A    between atoms: C_2  and  C_92
REMARK    5  A    between atoms: C_7  and  N_9
REMARK    6  A    between atoms: C_8  and  N_10
REMARK    7  A    between atoms: C_8  and  C_85
REMARK    8  A    between atoms: C_8  and  C_87
REMARK    9  A    between atoms: C_13  and  C_50
REMARK   10  A    between atoms: C_13  and  C_54
REMARK   11  A    between atoms: C_15  and  C_48
REMARK   12  A    between atoms: C_15  and  C_50
REMARK   13  A    between atoms: C_17  and  C_52
REMARK   14  A    between atoms: C_18  and  C_41
REMARK   15  A    between atoms: C_19  and  C_52
REMARK   16  A    between atoms: C_26  and  C_28
REMARK   17  A    between atoms: C_41  and  C_43
REMARK   18  A    between atoms: C_46  and  C_48
REMARK   19  A    between atoms: C_57  and  C_58
REMARK   20  A    between atoms: C_57  and  C_60
REMARK   21  A    between atoms: C_57  and  O_72
REMARK   22  A    between atoms: C_58  and  C_59
REMARK   23  A    between atoms: C_69  and  C_85
REMARK   24  A    between atoms: C_70  and  C_86
REMARK   25  A    between atoms: C_77  and  C_79
REMARK   26  A    between atoms: C_78  and  C_80
REMARK                            x       y       z     vdW  Elec       q    Type
REMARK                         _______ _______ _______ _____ _____    ______ ____
ROOT
ATOM      1  C   UNL     1      11.055  17.398  61.104  0.00  0.00    +0.000 C 
ENDROOT
TORSDOF 0
REMARK  Name = /web/media/ligands/6DJ1_ligand.pdb
REMARK  26 active torsions:
REMARK  status: ('A' for Active; 'I' for Inactive)
REMARK    1  A    between atoms: C_1  and  N_9
REMARK    2  A    between atoms: C_1  and  C_91
REMARK    3  A    between atoms: C_2  and  N_10
REMARK    4  A    between atoms: C_2  and  C_92
REMARK    5  A    between atoms: C_7  and  N_9
REMARK    6  A    between atoms: C_8  and  N_10
REMARK    7  A    between atoms: C_8  and  C_85
REMARK    8  A    between atoms: C_8  and  C_87
REMARK    9  A    between atoms: C_13  and  C_50
REMARK   10  A    between atoms: C_13  and  C_54
REMARK   11  A    between atoms: C_15  and  C_48
REMARK   12  A    between atoms: C_15  and  C_50
REMARK   13  A    between atoms: C_17  and  C_52
REMARK   14  A    between atoms: C_18  and  C_41
REMARK   15  A    between atoms: C_19  and  C_52
REMARK   16  A    between atoms: C_26  and  C_28
REMARK   17  A    between atoms: C_41  and  C_43
REMARK   18  A    between atoms: C_46  and  C_48
REMARK   19  A    between atoms: C_57  and  C_58
REMARK   20  A    between atoms: C_57  and  C_60
REMARK   21  A    between atoms: C_57  and  O_72
REMARK   22  A    between atoms: C_58  and  C_59
REMARK   23  A    between atoms: C_69  and  C_85
REMARK   24  A    between atoms: C_70  and  C_86
REMARK   25  A    between atoms: C_77  and  C_79
REMARK   26  A    between atoms: C_78  and  C_80
REMARK                            x       y       z     vdW  Elec       q    Type
REMARK                         _______ _______ _______ _____ _____    ______ ____
ROOT
ATOM      1  C   UNL     1       8.250  14.871  60.227  0.00  0.00    -0.031 C 
ATOM      2  C   UNL     1       7.164  14.591  61.041  0.00  0.00    -0.030 C 
ATOM      3  C   UNL     1       7.040  15.095  62.334  0.00  0.00    +0.030 C 
ENDROOT
BRANCH   1   4
ATOM      4  C   UNL     1       9.264  15.678  60.730  0.00  0.00    +0.026 C 
ATOM      5  C   UNL     1      10.483  15.830  60.076  0.00  0.00    +0.005 C 
ENDBRANCH   1   4
TORSDOF 1
