@<TRIPOS>MOLECULE
/web/media/ligands/6DJ1_ligand.pdb
 92 101 0 0 0
SMALL
GASTEIGER

@<TRIPOS>ATOM
      1 C           5.1690   16.3660   63.7490 C.3     1  UNL1        0.0913
      2 C          18.7750   26.2650   62.8730 C.3     1  UNL1        0.0888
      3 C           6.9050   17.8280   62.7300 C.3     1  UNL1        0.0015
      4 C          16.4710   25.4860   63.3660 C.3     1  UNL1        0.0015
      5 N           7.9290   16.8830   63.2380 N.3     1  UNL1       -0.2111
      6 N          17.0170   24.2960   64.0590 N.3     1  UNL1       -0.0952
      7 C           7.6160   15.8750   64.0460 C.3     1  UNL1        0.2167
      8 C          18.3290   24.0320   63.9860 C.3     1  UNL1        0.1238
      9 N           6.2810   15.6640   64.3580 N.3     1  UNL1       -0.1902
     10 N          19.1630   24.8920   63.2750 N.3     1  UNL1       -0.2152
     11 C          14.9030   20.5570   61.6730 C.3     1  UNL1        0.0175
     12 C          10.6240   19.8120   66.1890 C.3     1  UNL1        0.0162
     13 C          16.1800   21.0410   61.5330 C.3     1  UNL1        0.0001
     14 C           9.6810   18.8420   66.5130 C.3     1  UNL1        0.0044
     15 C          16.5140   22.0890   60.6710 C.3     1  UNL1        0.0000
     16 C           8.3480   19.1960   66.6510 C.2     1  UNL1       -0.0446
     17 C          15.5240   22.7110   59.9030 C.2     2  UNL2       -0.0261
     18 C           7.9270   20.5000   66.4430 C.3     1  UNL1        0.0183
     19 C          14.2320   22.2350   60.0340 C.3     2  UNL2        0.0047
     20 C           8.8730   21.4840   66.1600 C.3     1  UNL1        0.0004
     21 C          13.9370   21.1300   60.8370 C.3     2  UNL2        0.0004
     22 C          10.2090   21.1230   66.0310 C.3     1  UNL1        0.0014
     23 O           8.4780   15.0970   64.5340 O.3     1  UNL1       -0.2048
     24 O          18.8460   23.0550   64.5310 O.3     1  UNL1       -0.2006
     25 C           9.3570   17.0790   62.8830 C.3     1  UNL1        0.1592
     26 C          16.1280   23.3870   64.8150 C.3     1  UNL1        0.1591
     27 C           9.8930   18.2830   63.6240 C.3     1  UNL1        0.1893
     28 C          15.1720   22.6790   63.8600 C.3     1  UNL1        0.2204
     29 N          10.6460   18.0430   64.7140 N.3     1  UNL1       -0.1922
     30 N          15.5410   21.4420   63.5210 N.3     1  UNL1       -0.1893
     31 C          11.1440   19.0920   65.6120 C.3     1  UNL1        0.0752
     32 C          14.7810   20.5850   62.6100 C.3     1  UNL1        0.0754
     33 C           9.5600   17.1780   61.3780 C.3     1  UNL1        0.1290
     34 C          15.3750   24.1300   65.9160 C.3     1  UNL1        0.0029
     35 C          11.0550   17.3980   61.1040 C.3     3  UNL3        0.0000
     36 C          14.3350   23.2350   66.5940 C.3     1  UNL1        0.0026
     37 C           9.1070   15.8860   60.6920 C.3     1  UNL1        0.0065
     38 C          16.3830   24.6310   66.9550 C.3     1  UNL1        0.0065
     39 O           9.5800   19.4040   63.1950 O.3     1  UNL1       -0.3061
     40 O          14.1460   23.2340   63.4590 O.3     1  UNL1       -0.2978
     41 C           7.2070   20.9410   66.8420 C.3     1  UNL1        0.0040
     42 C          15.4380   23.5380   59.3560 C.2     2  UNL2       -0.0049
     43 C           6.2710   19.9210   66.7520 C.3     1  UNL1        0.0003
     44 C          16.7550   23.9730   59.4940 C.3     1  UNL1        0.0000
     45 C           6.7020   18.6020   66.7220 C.3     1  UNL1        0.0000
     46 C          17.6690   23.2300   60.2320 C.3     1  UNL1        0.0000
     47 C           8.0770   18.3380   66.8010 C.2     1  UNL1       -0.0091
     48 C          17.2960   22.0360   60.8350 C.3     1  UNL1        0.0000
     49 C           9.0270   19.3410   66.8460 C.3     1  UNL1        0.0220
     50 C          15.9600   21.6260   60.7470 C.3     1  UNL1        0.0000
     51 C           8.5670   20.6610   66.9080 C.3     1  UNL1        0.0040
     52 C          15.0720   22.3430   59.9530 C.3     2  UNL2        0.0260
     53 C          10.3790   19.0760   66.9460 C.3     1  UNL1        0.0031
     54 C          15.5810   20.4230   61.3120 C.3     1  UNL1        0.0028
     55 C          12.6250   18.8120   65.8670 C.3     1  UNL1        0.0215
     56 C          14.5680   19.1860   63.2050 C.3     1  UNL1        0.0190
     57 C          13.4830   18.5890   64.6170 C.3     1  UNL1        0.1725
     58 C          13.9460   19.1800   64.5920 C.3     1  UNL1        0.0520
     59 C          13.7460   19.7990   63.7270 C.3     1  UNL1        0.0803
     60 C          12.4690   19.5920   64.6270 C.3     1  UNL1        0.1079
     61 N          14.4420   20.8770   64.4590 N.3     1  UNL1       -0.1657
     62 N          11.6900   18.7450   63.7310 N.3     1  UNL1       -0.1687
     63 C          13.8710   22.0720   64.6950 C.3     1  UNL1        0.3518
     64 C          11.0070   19.2440   62.6910 C.3     1  UNL1        0.2910
     65 C          14.8000   23.1450   65.2660 C.3     1  UNL1        0.0312
     66 C           9.9170   18.3650   62.0870 C.3     1  UNL1        0.1414
     67 O          16.0380   22.5870   65.7550 O.3     1  UNL1       -0.3544
     68 O          10.1310   17.0040   62.4300 O.3     1  UNL1       -0.3542
     69 C          16.8770   23.5730   66.1050 C.3     1  UNL1        0.1204
     70 C           9.1260   16.2120   62.0000 C.3     1  UNL1        0.0725
     71 O          14.7790   18.0320   64.9890 O.3     1  UNL1       -0.0347
     72 O          14.0650   17.8530   65.1410 O.3     1  UNL1       -0.1902
     73 C          14.5960   19.4570   62.4960 C.3     1  UNL1        0.0176
     74 C          11.9630   19.4500   66.0720 C.3     1  UNL1        0.0177
     75 O          12.6920   22.3170   64.4620 O.3     1  UNL1       -0.1686
     76 O          11.1660   20.3710   62.2200 O.3     1  UNL1       -0.1756
     77 C          16.8070   24.1500   67.3650 C.3     1  UNL1        0.0433
     78 C           9.2640   15.6780   60.7300 C.3     4  UNL4        0.0257
     79 C          17.7090   25.1670   67.6510 C.2     1  UNL1       -0.0290
     80 C           8.2500   14.8710   60.2270 C.2     4  UNL4       -0.0307
     81 C          18.6280   25.6400   66.7020 C.2     1  UNL1       -0.0303
     82 C           7.1640   14.5910   61.0410 C.2     4  UNL4       -0.0304
     83 C          18.6870   25.0210   65.4470 C.3     1  UNL1        0.0303
     84 C           7.0400   15.0950   62.3340 C.3     4  UNL4        0.0303
     85 C          17.8450   23.9250   65.1900 C.3     1  UNL1        0.0514
     86 C           8.0270   15.9710   62.8010 C.3     1  UNL1        0.1222
     87 C          17.8190   23.3160   63.9240 C.3     1  UNL1        0.2576
     88 C           7.9130   16.5300   64.0740 C.3     1  UNL1        0.1373
     89 C          15.8580   23.7900   68.3460 C.3     1  UNL1        0.0068
     90 C          10.4830   15.8300   60.0760 C.3     4  UNL4        0.0050
     91 C           5.6050   17.1050   62.4870 C.3     1  UNL1        0.0189
     92 C          17.4410   26.6700   63.4850 C.3     1  UNL1        0.0188
@<TRIPOS>BOND
     1     1     9    1
     2     2    10    1
     3     2    92    1
     4     4    92    1
     5     5    88    1
     6     7    88    1
     7     7     9    1
     8     7    23    1
     9     8    85    1
    10    10     8    1
    11    11    32    1
    12    12    22    1
    13    12    53    1
    14    14    49    1
    15    15    50    1
    16    15    48    1
    17    16    47    2
    18    16    49    1
    19    17    52    1
    20    18    16    1
    21    18    41    1
    22    18    51    1
    23    19    21    1
    24    20    51    1
    25    22    20    1
    26    25    70    1
    27    25    27    1
    28    26    65    1
    29    26    67    1
    30    27    29    1
    31    28    30    1
    32    28    26    1
    33    29    62    1
    34    30    61    1
    35    31    29    1
    36    31    74    1
    37    31    12    1
    38    32    30    1
    39    33    70    1
    40    33    66    1
    41    33    68    1
    42    34    36    1
    43    34    38    1
    44    37    70    1
    45    38    77    1
    46    39    27    1
    47    40    28    1
    48    40    63    1
    49    42    17    2
    50    43    41    1
    51    44    46    1
    52    45    43    1
    53    46    48    1
    54    50    13    1
    55    52    19    1
    56    53    14    1
    57    54    13    1
    58    54    11    1
    59    54    73    1
    60    55    74    1
    61    56    59    1
    62    57    58    1
    63    57    60    1
    64    57    72    1
    65    59    61    1
    66    59    58    1
    67    60    62    1
    68    60    55    1
    69    61    63    1
    70    64    39    1
    71    64    62    1
    72    65    34    1
    73    65    36    1
    74    66    64    1
    75    66    27    1
    76    67    69    1
    77    68    25    1
    78    69    77    1
    79    70    86    1
    80    71    72    1
    81    73    32    1
    82    73    56    1
    83    74    53    1
    84    75    63    1
    85    76    64    1
    86    77    79    1
    87    77    89    1
    88    80    78    1
    89    80    82    2
    90    81    79    2
    91    82    84    1
    92    83    81    1
    93    85    69    1
    94    86     5    1
    95    86     7    1
    96    87     8    1
    97    87     6    1
    98    87    24    1
    99    90    78    1
   100    91     3    1
   101    91     1    1
