@<TRIPOS>MOLECULE
/web/media/ligands/6EI5_ligand.pdb
 31 35 0 0 0
SMALL
GASTEIGER

@<TRIPOS>ATOM
      1 C         -33.2090  -10.4220  -26.0720 C.ar    1  UNL1        0.0580
      2 C         -31.6450  -11.0580  -24.1990 C.2     1  UNL1        0.2707
      3 O         -31.1620  -10.0410  -23.7220 O.2     1  UNL1       -0.2707
      4 C         -32.1770   -9.7700  -26.7890 C.ar    1  UNL1        0.0023
      5 C         -34.7890   -9.8760  -27.8910 C.ar    1  UNL1        0.0345
      6 C         -32.4580   -9.1940  -28.0270 C.ar    1  UNL1       -0.0003
      7 C         -33.7690   -9.2660  -28.5710 C.ar    1  UNL1        0.0028
      8 C         -35.2630  -11.6390  -24.7570 C.cat   1  UNL1        0.4779
      9 C         -31.3660   -8.5220  -28.7860 C.ar    1  UNL1       -0.0026
     10 C         -29.5420  -12.3790  -23.7670 C.3     1  UNL1        0.1203
     11 C         -29.0240  -13.6850  -24.3360 C.ar    1  UNL1       -0.0047
     12 C         -27.7640  -14.2620  -24.2980 C.ar    1  UNL1       -0.0029
     13 C         -27.5610  -15.4920  -24.8940 C.ar    1  UNL1       -0.0003
     14 C         -28.6080  -16.1540  -25.5390 C.ar    1  UNL1       -0.0003
     15 C         -30.3380   -9.3330  -29.2990 C.ar    1  UNL1       -0.0003
     16 C         -30.2570   -6.5860  -29.7450 C.ar    1  UNL1       -0.0029
     17 C         -31.2790   -5.9340  -26.2650 C.3     1  UNL1        0.1079
     18 N         -30.9210  -12.2040  -24.2440 N.am    1  UNL1       -0.2682
     19 C         -33.0080  -11.0250  -24.7940 C.3     1  UNL1        0.2806
     20 C         -34.5320  -10.4750  -26.6340 C.ar    1  UNL1        0.1480
     21 N         -34.0470  -11.6230  -24.2000 N.2     1  UNL1       -0.0826
     22 N         -35.5010  -11.0970  -25.9440 N.pl3   1  UNL1       -0.0353
     23 N         -36.3140  -12.2510  -24.1020 N.pl3   1  UNL1        0.1471
     24 C         -31.3260  -13.5120  -24.8070 C.3     1  UNL1        0.1203
     25 C         -30.0810  -14.3520  -24.9510 C.ar    1  UNL1       -0.0047
     26 C         -29.8690  -15.5830  -25.5610 C.ar    1  UNL1       -0.0029
     27 C         -29.2800   -8.7790  -30.0100 C.ar    1  UNL1       -0.0000
     28 C         -29.2460   -7.4060  -30.2470 C.ar    1  UNL1       -0.0003
     29 C         -31.3220   -7.1220  -29.0220 C.ar    1  UNL1       -0.0048
     30 C         -32.3600   -6.1410  -28.4960 C.3     1  UNL1        0.1150
     31 N         -32.5140   -6.2200  -27.0260 N.3     1  UNL1       -0.2118
@<TRIPOS>BOND
     1     1    19    1
     2     2     3    2
     3     4     1   ar
     4     5    20   ar
     5     6     4   ar
     6     7     6   ar
     7     7     5   ar
     8     8    21    2
     9     8    23    1
    10     9     6    1
    11    11    12   ar
    12    11    10    1
    13    13    12   ar
    14    14    13   ar
    15    15     9   ar
    16    16    29   ar
    17    18     2   am
    18    18    10    1
    19    19    21    1
    20    19     2    1
    21    20     1   ar
    22    20    22    1
    23    22     8    1
    24    24    18    1
    25    25    24    1
    26    25    11   ar
    27    26    14   ar
    28    26    25   ar
    29    27    15   ar
    30    28    27   ar
    31    28    16   ar
    32    29     9   ar
    33    29    30    1
    34    30    31    1
    35    31    17    1
