/web/media/ligands/6EI5_ligand.pdb
 OpenBabel04242009293D

 31 35  0  0  1  0  0  0  0  0999 V2000
  -33.2090  -10.4220  -26.0720 C   0  0  0  0  0  0  0  0  0  0  0  0
  -31.6450  -11.0580  -24.1990 C   0  0  0  0  0  0  0  0  0  0  0  0
  -31.1620  -10.0410  -23.7220 O   0  0  0  0  0  0  0  0  0  0  0  0
  -32.1770   -9.7700  -26.7890 C   0  0  0  0  0  0  0  0  0  0  0  0
  -34.7890   -9.8760  -27.8910 C   0  0  0  0  0  0  0  0  0  0  0  0
  -32.4580   -9.1940  -28.0270 C   0  0  0  0  0  0  0  0  0  0  0  0
  -33.7690   -9.2660  -28.5710 C   0  0  0  0  0  0  0  0  0  0  0  0
  -35.2630  -11.6390  -24.7570 C   0  0  0  0  0  0  0  0  0  0  0  0
  -31.3660   -8.5220  -28.7860 C   0  0  0  0  0  0  0  0  0  0  0  0
  -29.5420  -12.3790  -23.7670 C   0  0  0  0  0  0  0  0  0  0  0  0
  -29.0240  -13.6850  -24.3360 C   0  0  0  0  0  0  0  0  0  0  0  0
  -27.7640  -14.2620  -24.2980 C   0  0  0  0  0  0  0  0  0  0  0  0
  -27.5610  -15.4920  -24.8940 C   0  0  0  0  0  0  0  0  0  0  0  0
  -28.6080  -16.1540  -25.5390 C   0  0  0  0  0  0  0  0  0  0  0  0
  -30.3380   -9.3330  -29.2990 C   0  0  0  0  0  0  0  0  0  0  0  0
  -30.2570   -6.5860  -29.7450 C   0  0  0  0  0  0  0  0  0  0  0  0
  -31.2790   -5.9340  -26.2650 C   0  0  0  0  0  0  0  0  0  0  0  0
  -30.9210  -12.2040  -24.2440 N   0  0  0  0  0  0  0  0  0  0  0  0
  -33.0080  -11.0250  -24.7940 C   0  0  2  0  0  0  0  0  0  0  0  0
  -34.5320  -10.4750  -26.6340 C   0  0  0  0  0  0  0  0  0  0  0  0
  -34.0470  -11.6230  -24.2000 N   0  0  0  0  0  0  0  0  0  0  0  0
  -35.5010  -11.0970  -25.9440 N   0  0  0  0  0  0  0  0  0  0  0  0
  -36.3140  -12.2510  -24.1020 N   0  0  0  0  0  0  0  0  0  0  0  0
  -31.3260  -13.5120  -24.8070 C   0  0  0  0  0  0  0  0  0  0  0  0
  -30.0810  -14.3520  -24.9510 C   0  0  0  0  0  0  0  0  0  0  0  0
  -29.8690  -15.5830  -25.5610 C   0  0  0  0  0  0  0  0  0  0  0  0
  -29.2800   -8.7790  -30.0100 C   0  0  0  0  0  0  0  0  0  0  0  0
  -29.2460   -7.4060  -30.2470 C   0  0  0  0  0  0  0  0  0  0  0  0
  -31.3220   -7.1220  -29.0220 C   0  0  0  0  0  0  0  0  0  0  0  0
  -32.3600   -6.1410  -28.4960 C   0  0  0  0  0  0  0  0  0  0  0  0
  -32.5140   -6.2200  -27.0260 N   0  0  0  0  0  0  0  0  0  0  0  0
  1 19  1  0  0  0  0
  2  3  2  0  0  0  0
  4  1  2  0  0  0  0
  5 20  2  0  0  0  0
  6  4  1  0  0  0  0
  7  6  2  0  0  0  0
  7  5  1  0  0  0  0
  8 21  2  0  0  0  0
  8 23  1  0  0  0  0
  9  6  1  0  0  0  0
 11 12  1  0  0  0  0
 11 10  1  0  0  0  0
 13 12  2  0  0  0  0
 14 13  1  0  0  0  0
 15  9  2  0  0  0  0
 16 29  2  0  0  0  0
 18  2  1  0  0  0  0
 18 10  1  0  0  0  0
 19 21  1  0  0  0  0
 19  2  1  6  0  0  0
 20  1  1  0  0  0  0
 20 22  1  0  0  0  0
 22  8  1  0  0  0  0
 24 18  1  0  0  0  0
 25 24  1  0  0  0  0
 25 11  2  0  0  0  0
 26 14  2  0  0  0  0
 26 25  1  0  0  0  0
 27 15  1  0  0  0  0
 28 27  2  0  0  0  0
 28 16  1  0  0  0  0
 29  9  1  0  0  0  0
 29 30  1  0  0  0  0
 30 31  1  0  0  0  0
 31 17  1  0  0  0  0
M  END
>  <REMARK>
 800 SITE_DESCRIPTION: binding site for residue B5Q A 301                 

>  <HET>
 B5Q  A 301      31                                                       

>  <HETNAM>
     B5Q [2-AZANYL-6-[2-(METHYLAMINOMETHYL)PHENYL]QUINAZOLIN-4-           
   2 B5Q  YL]-(1,3-DIHYDROISOINDOL-2-YL)METHANONE                         

>  <FORMUL>
   2  B5Q    C25 H23 N5 O                                                 

$$$$
