REMARK  Name = /web/media/ligands/6EI5_ligand.pdb
REMARK  4 active torsions:
REMARK  status: ('A' for Active; 'I' for Inactive)
REMARK    1  A    between atoms: C_2  and  C_19
REMARK    2  A    between atoms: C_6  and  C_9
REMARK    3  A    between atoms: C_29  and  C_30
REMARK    4  A    between atoms: C_30  and  N_31
REMARK                            x       y       z     vdW  Elec       q    Type
REMARK                         _______ _______ _______ _____ _____    ______ ____
ROOT
ATOM      1  C   UNL     1     -33.209 -10.422 -26.072  0.00  0.00    +0.058 A 
ATOM      2  C   UNL     1     -34.532 -10.475 -26.634  0.00  0.00    +0.148 A 
ATOM      3  N   UNL     1     -35.501 -11.097 -25.944  0.00  0.00    -0.035 NA
ATOM      4  C   UNL     1     -35.263 -11.639 -24.757  0.00  0.00    +0.478 C 
ATOM      5  N   UNL     1     -36.314 -12.251 -24.102  0.00  0.00    +0.147 NA
ATOM      6  N   UNL     1     -34.047 -11.623 -24.200  0.00  0.00    -0.083 NA
ATOM      7  C   UNL     1     -34.789  -9.876 -27.891  0.00  0.00    +0.034 A 
ATOM      8  C   UNL     1     -33.769  -9.266 -28.571  0.00  0.00    +0.003 A 
ATOM      9  C   UNL     1     -32.458  -9.194 -28.027  0.00  0.00    -0.000 A 
ATOM     10  C   UNL     1     -32.177  -9.770 -26.789  0.00  0.00    +0.002 A 
ATOM     11  C   UNL     1     -33.008 -11.025 -24.794  0.00  0.00    +0.281 C 
ENDROOT
BRANCH  11  12
ATOM     12  C   UNL     1     -31.645 -11.058 -24.199  0.00  0.00    +0.271 C 
ATOM     13  N   UNL     1     -30.921 -12.204 -24.244  0.00  0.00    -0.268 N 
ATOM     14  C   UNL     1     -31.326 -13.512 -24.807  0.00  0.00    +0.120 C 
ATOM     15  C   UNL     1     -30.081 -14.352 -24.951  0.00  0.00    -0.005 A 
ATOM     16  C   UNL     1     -29.869 -15.583 -25.561  0.00  0.00    -0.003 A 
ATOM     17  C   UNL     1     -28.608 -16.154 -25.539  0.00  0.00    -0.000 A 
ATOM     18  C   UNL     1     -27.561 -15.492 -24.894  0.00  0.00    -0.000 A 
ATOM     19  C   UNL     1     -27.764 -14.262 -24.298  0.00  0.00    -0.003 A 
ATOM     20  C   UNL     1     -29.024 -13.685 -24.336  0.00  0.00    -0.005 A 
ATOM     21  C   UNL     1     -29.542 -12.379 -23.767  0.00  0.00    +0.120 C 
ATOM     22  O   UNL     1     -31.162 -10.041 -23.722  0.00  0.00    -0.271 OA
ENDBRANCH  11  12
BRANCH   9  23
ATOM     23  C   UNL     1     -31.366  -8.522 -28.786  0.00  0.00    -0.003 A 
ATOM     24  C   UNL     1     -31.322  -7.122 -29.022  0.00  0.00    -0.005 A 
ATOM     25  C   UNL     1     -30.257  -6.586 -29.745  0.00  0.00    -0.003 A 
ATOM     26  C   UNL     1     -29.246  -7.406 -30.247  0.00  0.00    -0.000 A 
ATOM     27  C   UNL     1     -29.280  -8.779 -30.010  0.00  0.00    -0.000 A 
ATOM     28  C   UNL     1     -30.338  -9.333 -29.299  0.00  0.00    -0.000 A 
BRANCH  24  29
ATOM     29  C   UNL     1     -32.360  -6.141 -28.496  0.00  0.00    +0.115 C 
BRANCH  29  30
ATOM     30  N   UNL     1     -32.514  -6.220 -27.026  0.00  0.00    -0.212 NA
ATOM     31  C   UNL     1     -31.279  -5.934 -26.265  0.00  0.00    +0.108 C 
ENDBRANCH  29  30
ENDBRANCH  24  29
ENDBRANCH   9  23
TORSDOF 4
