@<TRIPOS>MOLECULE
/web/media/ligands/6EL5_ligand.pdb
 30 32 0 0 0
SMALL
GASTEIGER

@<TRIPOS>ATOM
      1 CL          2.2390   31.7810   24.8120 Cl      1  UNL1       -0.0793
      2 C           3.7780   32.5970   24.8890 C.ar    1  UNL1        0.0912
      3 C           4.8990   31.9510   24.3320 C.ar    1  UNL1        0.1856
      4 O           4.7380   30.8560   23.5230 O.3     1  UNL1       -0.4674
      5 C           4.8740   29.5380   24.0000 C.3     1  UNL1        0.2527
      6 C           6.1510   32.5790   24.3590 C.ar    1  UNL1        0.2069
      7 O           7.2630   31.9610   23.8480 O.3     1  UNL1       -0.4654
      8 C           7.4940   31.8830   22.4340 C.3     1  UNL1        0.2528
      9 C           6.3110   33.7850   25.0450 C.ar    1  UNL1        0.1752
     10 O           7.5700   34.3150   25.1280 O.3     1  UNL1       -0.4683
     11 C           7.7960   35.4490   25.9820 C.3     1  UNL1        0.2526
     12 C           5.1960   34.4130   25.6190 C.ar    1  UNL1        0.0373
     13 C           3.9340   33.8310   25.5540 C.ar    1  UNL1        0.0021
     14 C           2.8050   34.5730   26.2490 C.3     1  UNL1        0.0913
     15 C           1.6680   34.8760   25.2980 C.ar    1  UNL1        0.1260
     16 N           0.4500   34.4990   25.5270 N.ar    1  UNL1       -0.2260
     17 C          -0.3260   34.8510   24.4940 C.ar    1  UNL1        0.1514
     18 C          -1.6800   34.6860   24.1920 C.ar    1  UNL1        0.1939
     19 N          -2.5320   34.1060   25.1110 N.pl3   1  UNL1       -0.1053
     20 C           0.4980   35.5240   23.5860 C.ar    1  UNL1        0.1692
     21 N          -0.0110   35.9710   22.4590 N.ar    1  UNL1       -0.1822
     22 C          -1.2610   35.7390   22.1700 C.ar    1  UNL1        0.3129
     23 N          -2.1110   35.1440   23.0100 N.ar    1  UNL1       -0.1814
     24 N           1.7500   35.5520   24.1150 N.ar    1  UNL1       -0.2998
     25 C           2.9140   36.2090   23.4860 C.3     1  UNL1        0.1097
     26 C           2.8750   37.7330   23.6810 C.3     1  UNL1        0.0385
     27 C           2.9620   38.1330   25.1540 C.3     1  UNL1        0.0790
     28 C           4.3350   38.0650   25.7120 C.1     1  UNL1       -0.0779
     29 C           5.4100   38.0330   26.2000 C.1     1  UNL1       -0.0141
     30 F          -1.6560   36.1950   20.9810 F       1  UNL1       -0.1610
@<TRIPOS>BOND
     1     1     2    1
     2     2    13   ar
     3     3     6   ar
     4     3     2   ar
     5     4     5    1
     6     4     3    1
     7     6     9   ar
     8     7     6    1
     9     8     7    1
    10     9    10    1
    11     9    12   ar
    12    10    11    1
    13    13    12   ar
    14    13    14    1
    15    15    16   ar
    16    15    14    1
    17    17    16   ar
    18    18    17   ar
    19    18    19    1
    20    20    24   ar
    21    20    17   ar
    22    21    20   ar
    23    22    21   ar
    24    22    23   ar
    25    23    18   ar
    26    24    15   ar
    27    25    26    1
    28    25    24    1
    29    26    27    1
    30    27    28    1
    31    28    29    3
    32    30    22    1
