REMARK  Name = /web/media/ligands/6EL5_ligand.pdb
REMARK  9 active torsions:
REMARK  status: ('A' for Active; 'I' for Inactive)
REMARK    1  A    between atoms: C_3  and  O_4
REMARK    2  A    between atoms: C_6  and  O_7
REMARK    3  A    between atoms: C_9  and  O_10
REMARK    4  A    between atoms: C_13  and  C_14
REMARK    5  A    between atoms: C_14  and  C_15
REMARK    6  A    between atoms: N_24  and  C_25
REMARK    7  A    between atoms: C_25  and  C_26
REMARK    8  A    between atoms: C_26  and  C_27
REMARK    9  A    between atoms: C_27  and  C_28
REMARK                            x       y       z     vdW  Elec       q    Type
REMARK                         _______ _______ _______ _____ _____    ______ ____
ROOT
ATOM      1  C   UNL     1       1.668  34.876  25.298  0.00  0.00    +0.126 A 
ATOM      2  N   UNL     1       1.750  35.552  24.115  0.00  0.00    -0.300 N 
ATOM      3  C   UNL     1       0.498  35.524  23.586  0.00  0.00    +0.169 A 
ATOM      4  N   UNL     1      -0.011  35.971  22.459  0.00  0.00    -0.182 NA
ATOM      5  C   UNL     1      -1.261  35.739  22.170  0.00  0.00    +0.313 A 
ATOM      6  F   UNL     1      -1.656  36.195  20.981  0.00  0.00    -0.161 F 
ATOM      7  N   UNL     1      -2.111  35.144  23.010  0.00  0.00    -0.181 NA
ATOM      8  C   UNL     1      -1.680  34.686  24.192  0.00  0.00    +0.194 A 
ATOM      9  N   UNL     1      -2.532  34.106  25.111  0.00  0.00    -0.105 NA
ATOM     10  C   UNL     1      -0.326  34.851  24.494  0.00  0.00    +0.151 A 
ATOM     11  N   UNL     1       0.450  34.499  25.527  0.00  0.00    -0.226 NA
ENDROOT
BRANCH   1  12
ATOM     12  C   UNL     1       2.805  34.573  26.249  0.00  0.00    +0.091 C 
BRANCH  12  19
ATOM     13 CL   UNL     1       2.239  31.781  24.812  0.00  0.00    -0.079 Cl
ATOM     14  C   UNL     1       3.778  32.597  24.889  0.00  0.00    +0.091 A 
ATOM     15  C   UNL     1       4.899  31.951  24.332  0.00  0.00    +0.186 A 
ATOM     16  C   UNL     1       6.151  32.579  24.359  0.00  0.00    +0.207 A 
ATOM     17  C   UNL     1       6.311  33.785  25.045  0.00  0.00    +0.175 A 
ATOM     18  C   UNL     1       5.196  34.413  25.619  0.00  0.00    +0.037 A 
ATOM     19  C   UNL     1       3.934  33.831  25.554  0.00  0.00    +0.002 A 
BRANCH  16  20
ATOM     20  O   UNL     1       7.263  31.961  23.848  0.00  0.00    -0.465 OA
ATOM     21  C   UNL     1       7.494  31.883  22.434  0.00  0.00    +0.253 C 
ENDBRANCH  16  20
BRANCH  17  22
ATOM     22  O   UNL     1       7.570  34.315  25.128  0.00  0.00    -0.468 OA
ATOM     23  C   UNL     1       7.796  35.449  25.982  0.00  0.00    +0.253 C 
ENDBRANCH  17  22
BRANCH  15  24
ATOM     24  O   UNL     1       4.738  30.856  23.523  0.00  0.00    -0.467 OA
ATOM     25  C   UNL     1       4.874  29.538  24.000  0.00  0.00    +0.253 C 
ENDBRANCH  15  24
ENDBRANCH  12  19
ENDBRANCH   1  12
BRANCH   2  26
ATOM     26  C   UNL     1       2.914  36.209  23.486  0.00  0.00    +0.110 C 
BRANCH  26  27
ATOM     27  C   UNL     1       2.875  37.733  23.681  0.00  0.00    +0.039 C 
BRANCH  27  28
ATOM     28  C   UNL     1       2.962  38.133  25.154  0.00  0.00    +0.079 C 
BRANCH  28  29
ATOM     29  C   UNL     1       4.335  38.065  25.712  0.00  0.00    -0.078 C 
ATOM     30  C   UNL     1       5.410  38.033  26.200  0.00  0.00    -0.014 C 
ENDBRANCH  28  29
ENDBRANCH  27  28
ENDBRANCH  26  27
ENDBRANCH   2  26
TORSDOF 9
