@<TRIPOS>MOLECULE
/web/media/ligands/6ELN_ligand.pdb
 22 24 0 0 0
SMALL
GASTEIGER

@<TRIPOS>ATOM
      1 N          63.4430   36.0480   22.1570 N.ar    1  UNL1       -0.1523
      2 N          63.2220   34.9920   23.0440 N.ar    1  UNL1       -0.1482
      3 C          64.0300   35.1520   24.0840 C.ar    1  UNL1        0.1071
      4 C          64.7570   36.3780   23.9040 C.ar    1  UNL1        0.0348
      5 C          64.3640   36.8890   22.6890 C.ar    1  UNL1        0.0824
      6 C          64.0860   34.2760   25.2830 C.ar    1  UNL1        0.0586
      7 C          65.7350   36.9840   24.8710 C.ar    1  UNL1        0.0029
      8 C          64.8470   38.1530   22.0170 C.3     1  UNL1        0.0540
      9 C          67.1070   37.0390   24.5330 C.ar    1  UNL1        0.0032
     10 C          68.0280   37.5920   25.4160 C.ar    1  UNL1        0.0369
     11 C          67.6260   38.0630   26.6740 C.ar    1  UNL1        0.1387
     12 C          66.2640   37.9920   27.0340 C.ar    1  UNL1        0.0369
     13 C          65.3290   37.4280   26.1510 C.ar    1  UNL1        0.0032
     14 C          62.8820   33.8680   25.9130 C.ar    1  UNL1        0.2004
     15 C          62.9200   33.0990   27.0780 C.ar    1  UNL1        0.0841
     16 C          64.1620   32.6860   27.5810 C.ar    1  UNL1        0.1989
     17 C          65.3590   33.0710   26.9480 C.ar    1  UNL1        0.0423
     18 C          65.3280   33.8520   25.8060 C.ar    1  UNL1        0.0080
     19 O          64.2330   31.9450   28.7140 O.3     1  UNL1       -0.2865
     20 O          61.6830   34.2380   25.3980 O.3     1  UNL1       -0.2864
     21 O          68.6050   38.6090   27.4710 O.3     1  UNL1       -0.4714
     22 C          68.3020   39.1960   28.7430 C.3     1  UNL1        0.2525
@<TRIPOS>BOND
     1     1     5   ar
     2     1     2   ar
     3     2     3   ar
     4     3     6    1
     5     4     3   ar
     6     4     7    1
     7     5     4   ar
     8     6    18   ar
     9     6    14   ar
    10     7    13   ar
    11     8     5    1
    12     9     7   ar
    13     9    10   ar
    14    10    11   ar
    15    11    12   ar
    16    11    21    1
    17    13    12   ar
    18    14    15   ar
    19    15    16   ar
    20    16    19    1
    21    17    16   ar
    22    18    17   ar
    23    20    14    1
    24    21    22    1
