REMARK  Name = /web/media/ligands/6ELO_ligand.pdb
REMARK  3 active torsions:
REMARK  status: ('A' for Active; 'I' for Inactive)
REMARK    1  A    between atoms: C_4  and  C_15
REMARK    2  A    between atoms: C_6  and  C_13
REMARK    3  A    between atoms: C_8  and  C_9
REMARK                            x       y       z     vdW  Elec       q    Type
REMARK                         _______ _______ _______ _____ _____    ______ ____
ROOT
ATOM      1  C   UNL     1      64.411  34.963  24.015  0.00  0.00    +0.107 A 
ATOM      2  N   UNL     1      63.634  34.763  22.981  0.00  0.00    -0.148 NA
ATOM      3  N   UNL     1      63.784  35.855  22.101  0.00  0.00    -0.152 NA
ATOM      4  C   UNL     1      64.698  36.709  22.617  0.00  0.00    +0.082 A 
ATOM      5  C   UNL     1      65.080  38.027  21.979  0.00  0.00    +0.054 C 
ATOM      6  C   UNL     1      65.049  36.233  23.865  0.00  0.00    +0.037 A 
ENDROOT
BRANCH   1  10
ATOM      7  C   UNL     1      64.663  32.349  27.372  0.00  0.00    +0.195 A 
ATOM      8  C   UNL     1      65.816  32.644  26.637  0.00  0.00    +0.017 A 
ATOM      9  C   UNL     1      65.749  33.538  25.558  0.00  0.00    +0.004 A 
ATOM     10  C   UNL     1      64.509  34.059  25.172  0.00  0.00    +0.058 A 
ATOM     11  C   UNL     1      63.354  33.699  25.868  0.00  0.00    +0.200 A 
ATOM     12  O   UNL     1      62.137  34.181  25.506  0.00  0.00    -0.286 OA
ATOM     13  C   UNL     1      63.436  32.866  26.973  0.00  0.00    +0.084 A 
ATOM     14  O   UNL     1      64.676  31.531  28.457  0.00  0.00    -0.287 OA
BRANCH   8  15
ATOM     15  C   UNL     1      67.164  32.054  26.933  0.00  0.00    +0.030 C 
ATOM     16  C   UNL     1      67.310  30.727  26.151  0.00  0.00    +0.005 C 
ENDBRANCH   8  15
ENDBRANCH   1  10
BRANCH   6  17
ATOM     17  C   UNL     1      65.975  36.845  24.866  0.00  0.00    +0.030 A 
ATOM     18  C   UNL     1      67.327  37.005  24.539  0.00  0.00    +0.140 A 
ATOM     19  F   UNL     1      67.726  36.645  23.296  0.00  0.00    -0.204 F 
ATOM     20  C   UNL     1      68.209  37.598  25.455  0.00  0.00    +0.030 A 
ATOM     21  C   UNL     1      67.763  37.993  26.715  0.00  0.00    +0.002 A 
ATOM     22  C   UNL     1      66.418  37.848  27.041  0.00  0.00    +0.000 A 
ATOM     23  C   UNL     1      65.524  37.279  26.123  0.00  0.00    +0.002 A 
ENDBRANCH   6  17
TORSDOF 3
