/web/media/ligands/6ELO_ligand.pdb
 OpenBabel04242009293D

 23 25  0  0  0  0  0  0  0  0999 V2000
   64.6630   32.3490   27.3720 C   0  0  0  0  0  0  0  0  0  0  0  0
   63.4360   32.8660   26.9730 C   0  0  0  0  0  0  0  0  0  0  0  0
   63.3540   33.6990   25.8680 C   0  0  0  0  0  0  0  0  0  0  0  0
   67.1640   32.0540   26.9330 C   0  0  0  0  0  0  0  0  0  0  0  0
   67.3100   30.7270   26.1510 C   0  0  0  0  0  0  0  0  0  0  0  0
   64.4110   34.9630   24.0150 C   0  0  0  0  0  0  0  0  0  0  0  0
   64.6980   36.7090   22.6170 C   0  0  0  0  0  0  0  0  0  0  0  0
   65.0490   36.2330   23.8650 C   0  0  0  0  0  0  0  0  0  0  0  0
   65.9750   36.8450   24.8660 C   0  0  0  0  0  0  0  0  0  0  0  0
   67.7630   37.9930   26.7150 C   0  0  0  0  0  0  0  0  0  0  0  0
   66.4180   37.8480   27.0410 C   0  0  0  0  0  0  0  0  0  0  0  0
   65.5240   37.2790   26.1230 C   0  0  0  0  0  0  0  0  0  0  0  0
   64.5090   34.0590   25.1720 C   0  0  0  0  0  0  0  0  0  0  0  0
   65.7490   33.5380   25.5580 C   0  0  0  0  0  0  0  0  0  0  0  0
   65.8160   32.6440   26.6370 C   0  0  0  0  0  0  0  0  0  0  0  0
   64.6760   31.5310   28.4570 O   0  0  0  0  0  0  0  0  0  0  0  0
   62.1370   34.1810   25.5060 O   0  0  0  0  0  0  0  0  0  0  0  0
   63.6340   34.7630   22.9810 N   0  0  0  0  0  0  0  0  0  0  0  0
   63.7840   35.8550   22.1010 N   0  0  0  0  0  0  0  0  0  0  0  0
   67.3270   37.0050   24.5390 C   0  0  0  0  0  0  0  0  0  0  0  0
   68.2090   37.5980   25.4550 C   0  0  0  0  0  0  0  0  0  0  0  0
   67.7260   36.6450   23.2960 F   0  0  0  0  0  0  0  0  0  0  0  0
   65.0800   38.0270   21.9790 C   0  0  0  0  0  0  0  0  0  0  0  0
  1 16  1  0  0  0  0
  2  1  1  0  0  0  0
  3  2  2  0  0  0  0
  5  4  1  0  0  0  0
  6 13  1  0  0  0  0
  7  8  1  0  0  0  0
  8  6  2  0  0  0  0
  8  9  1  0  0  0  0
  9 12  1  0  0  0  0
 10 11  1  0  0  0  0
 12 11  2  0  0  0  0
 13 14  2  0  0  0  0
 13  3  1  0  0  0  0
 14 15  1  0  0  0  0
 15  4  1  0  0  0  0
 15  1  2  0  0  0  0
 17  3  1  0  0  0  0
 18  6  1  0  0  0  0
 19  7  2  0  0  0  0
 19 18  1  0  0  0  0
 20  9  2  0  0  0  0
 20 21  1  0  0  0  0
 21 10  2  0  0  0  0
 22 20  1  0  0  0  0
 23  7  1  0  0  0  0
M  END
>  <REMARK>
 800 SITE_DESCRIPTION: binding site for residue BAW A 301                 

>  <HET>
 BAW  A 301      23                                                       

>  <HETNAM>
     BAW 4-ETHYL-6-[4-(2-FLUOROPHENYL)-3-METHYL-1~{H}-PYRAZOL-5-          
   2 BAW  YL]BENZENE-1,3-DIOL                                             

>  <FORMUL>
   2  BAW    C18 H17 F N2 O2                                              

$$$$
