@<TRIPOS>MOLECULE
/web/media/ligands/6ELP_ligand.pdb
 28 31 0 0 0
SMALL
GASTEIGER

@<TRIPOS>ATOM
      1 C           1.2430   33.7370   25.6920 C.ar    1  UNL1        0.0174
      2 C           0.0670   33.3460   26.3560 C.ar    1  UNL1        0.1949
      3 C          -1.1860   33.7240   25.8570 C.ar    1  UNL1        0.0837
      4 C          -0.1110   35.8300   22.8520 C.ar    1  UNL1        0.0875
      5 C          -0.6690   35.6420   21.6070 C.ar    1  UNL1        0.0417
      6 C          -0.3960   36.7870   20.8510 C.ar    1  UNL1        0.1221
      7 C           1.0910   37.6900   23.9870 C.ar    1  UNL1        0.0933
      8 C           2.4810   37.6350   24.1380 C.ar    1  UNL1        0.0753
      9 C           3.1170   38.1740   25.2670 C.ar    1  UNL1        0.0129
     10 C           2.3380   38.7410   26.2720 C.ar    1  UNL1        0.0010
     11 C           2.6130   33.2690   26.1810 C.3     1  UNL1        0.0359
     12 C           6.2470   30.2720   25.1000 C.ar    1  UNL1        0.0028
     13 C           7.0470   32.3700   25.9850 C.ar    1  UNL1        0.0984
     14 N           5.8340   32.9030   25.8110 N.ar    1  UNL1       -0.2481
     15 C           4.9940   30.8810   24.9090 C.ar    1  UNL1        0.0147
     16 C          -1.2790   34.5260   24.7160 C.ar    1  UNL1        0.2003
     17 C          -0.1090   34.9220   24.0330 C.ar    1  UNL1        0.0566
     18 C           1.1400   34.5120   24.5430 C.ar    1  UNL1        0.0036
     19 O           0.1340   32.6520   27.5230 O.3     1  UNL1       -0.2868
     20 N           0.2890   37.6280   21.5810 N.ar    1  UNL1       -0.1635
     21 N           0.4570   37.0840   22.8660 N.ar    1  UNL1       -0.2287
     22 C           0.9450   38.7840   26.1310 C.ar    1  UNL1        0.0016
     23 C           0.3130   38.2250   25.0270 C.ar    1  UNL1        0.0200
     24 CL          3.4130   36.8970   22.8810 Cl      1  UNL1       -0.0807
     25 O          -2.5090   34.8400   24.2490 O.3     1  UNL1       -0.2864
     26 C           7.2900   31.0400   25.6300 C.ar    1  UNL1        0.0207
     27 C           4.8150   32.2080   25.3050 C.ar    1  UNL1        0.0593
     28 C           3.4960   32.8810   24.9890 C.3     1  UNL1        0.0506
@<TRIPOS>BOND
     1     1    11    1
     2     1     2   ar
     3     2    19    1
     4     3     2   ar
     5     4    21   ar
     6     4    17    1
     7     5     4   ar
     8     6    20   ar
     9     6     5   ar
    10     7     8   ar
    11     7    23   ar
    12     8     9   ar
    13     9    10   ar
    14    12    26   ar
    15    14    13   ar
    16    15    12   ar
    17    15    27   ar
    18    16     3   ar
    19    17    18   ar
    20    17    16   ar
    21    18     1   ar
    22    20    21   ar
    23    21     7    1
    24    22    10   ar
    25    23    22   ar
    26    24     8    1
    27    25    16    1
    28    26    13   ar
    29    27    14   ar
    30    28    27    1
    31    28    11    1
