@<TRIPOS>MOLECULE
/web/media/ligands/6EY9_ligand.pdb
 30 33 0 0 0
SMALL
GASTEIGER

@<TRIPOS>ATOM
      1 C          66.4830   34.2320   23.8740 C.ar    1  UNL1        0.0926
      2 C          65.3300   33.8090   24.5770 C.ar    1  UNL1        0.2016
      3 C          65.4320   33.0840   25.7540 C.ar    1  UNL1        0.0631
      4 O          64.1100   34.0650   24.0580 O.3     1  UNL1       -0.2864
      5 C          67.8600   33.2500   25.6050 C.ar    1  UNL1        0.0354
      6 C          66.6910   32.8220   26.2960 C.ar    1  UNL1        0.1072
      7 C          68.9900   32.8490   26.4370 C.ar    1  UNL1        0.0864
      8 C          70.4430   33.2060   26.1920 C.3     1  UNL1        0.0739
      9 C          71.1410   32.5500   25.0300 C.ar    1  UNL1       -0.0165
     10 C          71.6560   33.3510   24.0050 C.ar    1  UNL1       -0.0039
     11 C          72.4000   32.7890   22.9590 C.ar    1  UNL1       -0.0006
     12 C          71.4190   31.1800   25.0420 C.ar    1  UNL1       -0.0081
     13 C          66.6080   36.8780   21.0850 C.3     1  UNL1        0.1155
     14 C          67.0000   37.1620   23.5260 C.3     1  UNL1        0.1205
     15 C          68.5760   37.2440   25.4240 C.ar    1  UNL1       -0.0017
     16 C          69.8530   37.2520   25.9670 C.ar    1  UNL1        0.0111
     17 C          72.4870   29.1710   23.9860 C.3     1  UNL1        0.0310
     18 C          67.7580   33.8860   24.3590 C.ar    1  UNL1        0.0105
     19 C          66.3690   34.9330   22.5670 C.2     1  UNL1        0.2524
     20 N          66.7020   36.2510   22.4070 N.am    1  UNL1       -0.2701
     21 O          66.0400   34.2540   21.6020 O.2     1  UNL1       -0.2698
     22 N          67.1080   32.2380   27.4640 N.ar    1  UNL1       -0.1482
     23 N          68.5010   32.3450   27.5360 N.ar    1  UNL1       -0.1520
     24 C          72.6570   31.4240   22.9560 C.ar    1  UNL1       -0.0043
     25 C          72.1680   30.6310   23.9960 C.ar    1  UNL1       -0.0222
     26 C          68.4120   37.1710   24.0380 C.ar    1  UNL1       -0.0023
     27 C          70.9590   37.1920   25.1170 C.ar    1  UNL1        0.0577
     28 C          70.7860   37.1170   23.7310 C.ar    1  UNL1        0.0111
     29 C          69.5100   37.1060   23.1790 C.ar    1  UNL1       -0.0017
     30 CL         72.5580   37.2200   25.8040 Cl      1  UNL1       -0.0822
@<TRIPOS>BOND
     1     1    18   ar
     2     1     2   ar
     3     2     3   ar
     4     3     6   ar
     5     4     2    1
     6     5     6   ar
     7     5     7   ar
     8     6    22   ar
     9     7    23   ar
    10     8     7    1
    11     9    12   ar
    12     9     8    1
    13    10     9   ar
    14    11    10   ar
    15    13    20    1
    16    14    26    1
    17    15    16   ar
    18    17    25    1
    19    18     5   ar
    20    19     1    1
    21    20    19   am
    22    20    14    1
    23    21    19    2
    24    22    23   ar
    25    24    11   ar
    26    24    25   ar
    27    25    12   ar
    28    26    15   ar
    29    27    30    1
    30    27    16   ar
    31    28    27   ar
    32    29    28   ar
    33    29    26   ar
