/web/media/ligands/6EYA_ligand.pdb
 OpenBabel04242009293D

 62 51  0  0  1  0  0  0  0  0999 V2000
   65.9470   34.3770   23.9460 C   0  0  0  0  0  0  0  0  0  0  0  0
   65.9090   34.2960   23.9020 C   0  0  0  0  0  0  0  0  0  0  0  0
   64.7540   34.0340   24.6450 C   0  0  0  0  0  0  0  0  0  0  0  0
   64.7780   34.1000   24.7420 C   0  0  0  0  0  0  0  0  0  0  0  0
   64.8000   33.3560   25.8530 C   0  0  0  0  0  0  0  0  0  0  0  0
   64.9080   33.5380   26.0010 C   0  0  0  0  0  0  0  0  0  0  0  0
   63.5460   34.3180   24.0970 O   0  0  0  0  0  0  0  0  0  0  0  0
   63.5500   34.4710   24.3080 O   0  0  0  0  0  0  0  0  0  0  0  0
   67.2470   33.4330   25.7700 C   0  0  0  0  0  0  0  0  0  0  0  0
   67.3160   33.3340   25.6170 C   0  0  0  0  0  0  0  0  0  0  0  0
   66.0430   33.0690   26.4340 C   0  0  0  0  0  0  0  0  0  0  0  0
   66.1770   33.1460   26.4500 C   0  0  0  0  0  0  0  0  0  0  0  0
   68.3350   32.9760   26.6340 C   0  0  0  0  0  0  0  0  0  0  0  0
   68.4610   32.8390   26.3750 C   0  0  0  0  0  0  0  0  0  0  0  0
   69.8190   33.1860   26.4500 C   0  0  1  0  0  0  0  0  0  0  0  0
   69.8910   32.7790   25.8790 C   0  0  0  0  0  0  0  0  0  0  0  0
   70.4980   32.5730   25.2550 C   0  0  0  0  0  0  0  0  0  0  0  0
   70.7120   34.0280   26.1010 C   0  0  0  0  0  0  0  0  0  0  0  0
   70.9100   33.4260   24.2440 C   0  0  0  0  0  0  0  0  0  0  0  0
   70.2050   35.3060   25.8630 C   0  0  0  0  0  0  0  0  0  0  0  0
   71.9900   31.6010   23.0750 C   0  0  0  0  0  0  0  0  0  0  0  0
   72.3210   36.2790   26.4730 C   0  0  0  0  0  0  0  0  0  0  0  0
   70.8720   31.2240   25.2020 C   0  0  0  0  0  0  0  0  0  0  0  0
   72.0410   33.8840   26.5020 C   0  0  0  0  0  0  0  0  0  0  0  0
   71.9870   29.3250   23.9660 C   0  0  0  0  0  0  0  0  0  0  0  0
   74.2360   34.8500   27.2120 C   0  0  0  0  0  0  0  0  0  0  0  0
   69.6250   37.3410   24.1460 C   0  0  2  0  0  0  0  0  0  0  0  0
   69.1680   38.1250   23.4280 C   0  0  0  0  0  0  0  0  0  0  0  0
   68.7190   36.8780   23.2000 C   0  0  1  0  0  0  0  0  0  0  0  0
   68.3500   37.3000   22.6680 C   0  0  0  0  0  0  0  0  0  0  0  0
   66.8610   37.4540   24.6580 C   0  0  0  0  0  0  0  0  0  0  0  0
   66.5800   37.4960   24.3150 C   0  0  0  0  0  0  0  0  0  0  0  0
   66.4460   36.3760   22.4970 N   0  0  0  0  0  0  0  0  0  0  0  0
   66.2190   36.1950   22.2800 N   0  0  0  0  0  0  0  0  0  0  0  0
   69.1500   37.8530   25.3550 C   0  0  2  0  0  0  0  0  0  0  0  0
   68.7050   38.6200   24.6450 C   0  0  1  0  0  0  0  0  0  0  0  0
   68.8160   39.1130   27.1700 C   0  0  0  0  0  0  0  0  0  0  0  0
   68.4800   39.3890   26.7490 C   0  0  0  0  0  0  0  0  0  0  0  0
   67.1920   34.0500   24.5150 C   0  0  0  0  0  0  0  0  0  0  0  0
   67.1790   33.8990   24.3430 C   0  0  0  0  0  0  0  0  0  0  0  0
   65.8370   35.1520   22.6750 C   0  0  0  0  0  0  0  0  0  0  0  0
   65.7210   34.9570   22.5870 C   0  0  0  0  0  0  0  0  0  0  0  0
   65.0860   34.7120   21.8150 O   0  0  0  0  0  0  0  0  0  0  0  0
   65.0150   34.3920   21.7710 O   0  0  0  0  0  0  0  0  0  0  0  0
   66.4080   32.4750   27.6110 N   0  0  0  0  0  0  0  0  0  0  0  0
   66.6250   32.5800   27.6160 N   0  0  0  0  0  0  0  0  0  0  0  0
   67.7960   32.4850   27.7140 N   0  0  0  0  0  0  0  0  0  0  0  0
   68.0100   32.4060   27.5220 N   0  0  0  0  0  0  0  0  0  0  0  0
   71.6190   30.7600   24.1040 C   0  0  0  0  0  0  0  0  0  0  0  0
   72.8350   35.0050   26.7090 C   0  0  0  0  0  0  0  0  0  0  0  0
   71.6350   32.9290   23.1610 C   0  0  0  0  0  0  0  0  0  0  0  0
   71.0080   36.4310   26.0530 C   0  0  0  0  0  0  0  0  0  0  0  0
   67.3340   36.9210   23.4500 C   0  0  1  0  0  0  0  0  0  0  0  0
   67.0530   36.9730   23.1070 C   0  0  0  0  0  0  0  0  0  0  0  0
   66.2930   37.1140   21.2320 C   0  0  0  0  0  0  0  0  0  0  0  0
   65.9490   36.7590   20.9520 C   0  0  0  0  0  0  0  0  0  0  0  0
   67.7700   37.8970   25.6130 C   0  0  0  0  0  0  0  0  0  0  0  0
   67.4140   38.2900   25.0930 C   0  0  2  0  0  0  0  0  0  0  0  0
   67.5810   38.4400   26.8470 O   0  0  0  0  0  0  0  0  0  0  0  0
   67.2060   38.8560   26.3100 O   0  0  0  0  0  0  0  0  0  0  0  0
   69.8110   38.3760   26.4330 O   0  0  0  0  0  0  0  0  0  0  0  0
   69.3200   39.4170   25.5750 O   0  0  0  0  0  0  0  0  0  0  0  0
  1 40  1  0  0  0  0
  4  5  3  0  0  0  0
  6 11  3  0  0  0  0
  8  3  1  0  0  0  0
  9 12  1  0  0  0  0
 12 45  1  0  0  0  0
 13 48  3  0  0  0  0
 15 14  1  6  0  0  0
 16 15  1  0  0  0  0
 17 16  1  0  0  0  0
 18 15  1  0  0  0  0
 18 24  2  0  0  0  0
 19 17  2  0  0  0  0
 20 52  2  0  0  0  0
 20 18  1  0  0  0  0
 21 51  2  0  0  0  0
 21 49  1  0  0  0  0
 22 50  2  0  0  0  0
 23 17  1  0  0  0  0
 24 50  1  0  0  0  0
 25 49  1  0  0  0  0
 27 28  1  6  0  0  0
 27 35  1  0  0  0  0
 29 30  1  6  0  0  0
 29 28  1  0  0  0  0
 29 27  1  0  0  0  0
 30 53  1  0  0  0  0
 31 58  1  0  0  0  0
 32 31  1  0  0  0  0
 33 54  2  0  0  0  0
 34 41  3  0  0  0  0
 35 61  1  1  0  0  0
 36 58  1  0  0  0  0
 36 35  1  0  0  0  0
 36 62  1  1  0  0  0
 38 59  1  0  0  0  0
 38 37  1  0  0  0  0
 39 10  3  0  0  0  0
 43 42  2  0  0  0  0
 46 47  3  0  0  0  0
 49 23  2  0  0  0  0
 50 26  1  0  0  0  0
 51 19  1  0  0  0  0
 52 22  1  0  0  0  0
 53 54  1  6  0  0  0
 53 32  1  0  0  0  0
 56 55  3  0  0  0  0
 57 60  1  0  0  0  0
 58 57  1  1  0  0  0
 60 59  1  0  0  0  0
 62 61  1  0  0  0  0
M  END
>  <REMARK>
 800 SITE_DESCRIPTION: binding site for residue C4K A 301                 

>  <HET>
 C4K  A 301      62                                                       

>  <HETNAM>
     C4K ~{N}-(1,3-BENZODIOXOL-5-YL)-~{N}-METHYL-3-[(3-                   
   2 C4K  METHYLPHENYL)METHYL]-6-OXIDANYL-1~{H}-INDAZOLE-5-               
   3 C4K  CARBOXAMIDE                                                     

>  <FORMUL>
   2  C4K    C24 H21 N3 O4                                                

$$$$
