@<TRIPOS>MOLECULE
/web/media/ligands/6EYA_ligand.pdb
 62 51 0 0 0
SMALL
GASTEIGER

@<TRIPOS>ATOM
      1 C          65.9470   34.3770   23.9460 C.3     1  UNL1        0.0000
      2 C          65.9090   34.2960   23.9020 C.3     1  UNL1        0.0000
      3 C          64.7540   34.0340   24.6450 C.3     3  UNL3        0.2175
      4 C          64.7780   34.1000   24.7420 C.1     4  UNL4        0.0000
      5 C          64.8000   33.3560   25.8530 C.1     4  UNL4        0.0000
      6 C          64.9080   33.5380   26.0010 C.1     5  UNL5        0.0000
      7 O          63.5460   34.3180   24.0970 O.3     2  HOH2        0.0000
      8 O          63.5500   34.4710   24.3080 O.3     3  UNL3       -0.2175
      9 C          67.2470   33.4330   25.7700 C.3     6  UNL6        0.0220
     10 C          67.3160   33.3340   25.6170 C.1     7  UNL7        0.0000
     11 C          66.0430   33.0690   26.4340 C.1     5  UNL5        0.0000
     12 C          66.1770   33.1460   26.4500 C.3     6  UNL6        0.1094
     13 C          68.3350   32.9760   26.6340 C.1     8  UNL8        0.1795
     14 C          68.4610   32.8390   26.3750 C.3     3  UNL3        0.0050
     15 C          69.8190   33.1860   26.4500 C.3     3  UNL3        0.0267
     16 C          69.8910   32.7790   25.8790 C.3     3  UNL3        0.0307
     17 C          70.4980   32.5730   25.2550 C.ar    3  UNL3       -0.0222
     18 C          70.7120   34.0280   26.1010 C.ar    3  UNL3       -0.0225
     19 C          70.9100   33.4260   24.2440 C.ar    3  UNL3       -0.0043
     20 C          70.2050   35.3060   25.8630 C.ar    3  UNL3       -0.0043
     21 C          71.9900   31.6010   23.0750 C.ar    3  UNL3       -0.0043
     22 C          72.3210   36.2790   26.4730 C.ar    3  UNL3       -0.0043
     23 C          70.8720   31.2240   25.2020 C.ar    3  UNL3       -0.0085
     24 C          72.0410   33.8840   26.5020 C.ar    3  UNL3       -0.0085
     25 C          71.9870   29.3250   23.9660 C.3     3  UNL3        0.0310
     26 C          74.2360   34.8500   27.2120 C.3     3  UNL3        0.0310
     27 C          69.6250   37.3410   24.1460 C.3     4  UNL4        0.0330
     28 C          69.1680   38.1250   23.4280 C.3     4  UNL4        0.0027
     29 C          68.7190   36.8780   23.2000 C.3     4  UNL4        0.0030
     30 C          68.3500   37.3000   22.6680 C.3     4  UNL4        0.0061
     31 C          66.8610   37.4540   24.6580 C.3     4  UNL4        0.0056
     32 C          66.5800   37.4960   24.3150 C.3     4  UNL4        0.0062
     33 N          66.4460   36.3760   22.4970 N.2     4  UNL4       -0.1514
     34 N          66.2190   36.1950   22.2800 N.1     9  UNL9       -0.1795
     35 C          69.1500   37.8530   25.3550 C.3     4  UNL4        0.1821
     36 C          68.7050   38.6200   24.6450 C.3     4  UNL4        0.1846
     37 C          68.8160   39.1130   27.1700 C.3     4  UNL4        0.0382
     38 C          68.4800   39.3890   26.7490 C.3     4  UNL4        0.1822
     39 C          67.1920   34.0500   24.5150 C.1     7  UNL7        0.0000
     40 C          67.1790   33.8990   24.3430 C.3     1  UNL1        0.0000
     41 C          65.8370   35.1520   22.6750 C.1     9  UNL9        0.1795
     42 C          65.7210   34.9570   22.5870 C.2    10  UNL10       0.2794
     43 O          65.0860   34.7120   21.8150 O.2    10  UNL10      -0.2794
     44 O          65.0150   34.3920   21.7710 O.3     5  UNL5        0.0000
     45 N          66.4080   32.4750   27.6110 N.3     6  UNL6       -0.1314
     46 N          66.6250   32.5800   27.6160 N.1    11  UNL11       0.0000
     47 N          67.7960   32.4850   27.7140 N.1    11  UNL11       0.0000
     48 N          68.0100   32.4060   27.5220 N.1     8  UNL8       -0.1795
     49 C          71.6190   30.7600   24.1040 C.ar    3  UNL3       -0.0222
     50 C          72.8350   35.0050   26.7090 C.ar    3  UNL3       -0.0222
     51 C          71.6350   32.9290   23.1610 C.ar    3  UNL3       -0.0006
     52 C          71.0080   36.4310   26.0530 C.ar    3  UNL3       -0.0006
     53 C          67.3340   36.9210   23.4500 C.3     4  UNL4        0.0433
     54 C          67.0530   36.9730   23.1070 C.2     4  UNL4        0.0953
     55 C          66.2930   37.1140   21.2320 C.1    12  UNL12       0.0000
     56 C          65.9490   36.7590   20.9520 C.1    12  UNL12       0.0000
     57 C          67.7700   37.8970   25.6130 C.3     4  UNL4        0.1846
     58 C          67.4140   38.2900   25.0930 C.3     4  UNL4        0.0660
     59 O          67.5810   38.4400   26.8470 O.3     4  UNL4       -0.2204
     60 O          67.2060   38.8560   26.3100 O.3     4  UNL4       -0.2203
     61 O          69.8110   38.3760   26.4330 O.3     4  UNL4       -0.2204
     62 O          69.3200   39.4170   25.5750 O.3     4  UNL4       -0.2203
@<TRIPOS>BOND
     1     1    40    1
     2     4     5    3
     3     6    11    3
     4     8     3    1
     5     9    12    1
     6    12    45    1
     7    13    48    3
     8    15    14    1
     9    16    15    1
    10    17    16    1
    11    18    15    1
    12    18    24   ar
    13    19    17   ar
    14    20    52   ar
    15    20    18   ar
    16    21    51   ar
    17    21    49   ar
    18    22    50   ar
    19    23    17   ar
    20    24    50   ar
    21    25    49    1
    22    27    28    1
    23    27    35    1
    24    29    30    1
    25    29    28    1
    26    29    27    1
    27    30    53    1
    28    31    58    1
    29    32    31    1
    30    33    54    2
    31    34    41    3
    32    35    61    1
    33    36    58    1
    34    36    35    1
    35    36    62    1
    36    38    59    1
    37    38    37    1
    38    39    10    3
    39    43    42    2
    40    46    47    3
    41    49    23   ar
    42    50    26    1
    43    51    19   ar
    44    52    22   ar
    45    53    54    1
    46    53    32    1
    47    56    55    3
    48    57    60    1
    49    58    57    1
    50    60    59    1
    51    62    61    1
