REMARK  Name = /web/media/ligands/6EYB_ligand.pdb
REMARK  4 active torsions:
REMARK  status: ('A' for Active; 'I' for Inactive)
REMARK    1  A    between atoms: C_3  and  C_16
REMARK    2  A    between atoms: C_5  and  N_19
REMARK    3  A    between atoms: C_11  and  C_12
REMARK    4  A    between atoms: C_12  and  C_25
REMARK                            x       y       z     vdW  Elec       q    Type
REMARK                         _______ _______ _______ _____ _____    ______ ____
ROOT
ATOM      1  C   UNL     1      65.103  33.141  25.610  0.00  0.00    +0.063 A 
ATOM      2  C   UNL     1      65.105  33.854  24.418  0.00  0.00    +0.199 A 
ATOM      3  O   UNL     1      63.933  34.239  23.871  0.00  0.00    -0.286 OA
ATOM      4  C   UNL     1      66.317  34.232  23.789  0.00  0.00    +0.057 A 
ATOM      5  C   UNL     1      67.540  33.832  24.320  0.00  0.00    +0.007 A 
ATOM      6  C   UNL     1      67.562  33.102  25.511  0.00  0.00    +0.035 A 
ATOM      7  C   UNL     1      68.644  32.566  26.321  0.00  0.00    +0.086 A 
ATOM      8  N   UNL     1      68.108  32.048  27.408  0.00  0.00    -0.152 NA
ATOM      9  N   UNL     1      66.720  32.096  27.313  0.00  0.00    -0.148 NA
ATOM     10  C   UNL     1      66.348  32.753  26.160  0.00  0.00    +0.107 A 
ENDROOT
BRANCH   4  11
ATOM     11  C   UNL     1      66.319  35.092  22.582  0.00  0.00    +0.087 A 
ATOM     12  N   UNL     1      66.919  36.327  22.473  0.00  0.00    -0.230 N 
ATOM     13  N   UNL     1      66.702  36.781  21.169  0.00  0.00    -0.164 NA
ATOM     14  C   UNL     1      65.963  35.903  20.542  0.00  0.00    +0.122 A 
ATOM     15  C   UNL     1      65.702  34.829  21.394  0.00  0.00    +0.042 A 
BRANCH  12  16
ATOM     16  C   UNL     1      67.731  36.969  23.440  0.00  0.00    +0.083 A 
ATOM     17  C   UNL     1      69.090  37.178  23.149  0.00  0.00    +0.019 A 
ATOM     18  C   UNL     1      69.928  37.765  24.104  0.00  0.00    +0.002 A 
ATOM     19  C   UNL     1      69.417  38.125  25.354  0.00  0.00    +0.000 A 
ATOM     20  C   UNL     1      68.066  37.907  25.649  0.00  0.00    +0.002 A 
ATOM     21  C   UNL     1      67.220  37.340  24.698  0.00  0.00    +0.019 A 
ENDBRANCH  12  16
ENDBRANCH   4  11
BRANCH   7  22
ATOM     22  C   UNL     1      70.118  32.752  26.028  0.00  0.00    +0.074 C 
BRANCH  22  23
ATOM     23  C   UNL     1      70.719  31.816  24.999  0.00  0.00    -0.016 A 
ATOM     24  C   UNL     1      71.328  32.349  23.860  0.00  0.00    -0.004 A 
ATOM     25  C   UNL     1      71.958  31.515  22.931  0.00  0.00    -0.000 A 
ATOM     26  C   UNL     1      72.001  30.135  23.150  0.00  0.00    -0.000 A 
ATOM     27  C   UNL     1      71.418  29.604  24.299  0.00  0.00    -0.000 A 
ATOM     28  C   UNL     1      70.786  30.441  25.223  0.00  0.00    -0.004 A 
ENDBRANCH  22  23
ENDBRANCH   7  22
TORSDOF 4
