/web/media/ligands/6EYB_ligand.pdb
 OpenBabel04242009293D

 28 32  0  0  0  0  0  0  0  0999 V2000
   65.1030   33.1410   25.6100 C   0  0  0  0  0  0  0  0  0  0  0  0
   65.1050   33.8540   24.4180 C   0  0  0  0  0  0  0  0  0  0  0  0
   66.3170   34.2320   23.7890 C   0  0  0  0  0  0  0  0  0  0  0  0
   65.9630   35.9030   20.5420 C   0  0  0  0  0  0  0  0  0  0  0  0
   67.7310   36.9690   23.4400 C   0  0  0  0  0  0  0  0  0  0  0  0
   69.0900   37.1780   23.1490 C   0  0  0  0  0  0  0  0  0  0  0  0
   69.9280   37.7650   24.1040 C   0  0  0  0  0  0  0  0  0  0  0  0
   69.4170   38.1250   25.3540 C   0  0  0  0  0  0  0  0  0  0  0  0
   68.0660   37.9070   25.6490 C   0  0  0  0  0  0  0  0  0  0  0  0
   67.2200   37.3400   24.6980 C   0  0  0  0  0  0  0  0  0  0  0  0
   68.6440   32.5660   26.3210 C   0  0  0  0  0  0  0  0  0  0  0  0
   70.1180   32.7520   26.0280 C   0  0  0  0  0  0  0  0  0  0  0  0
   70.7860   30.4410   25.2230 C   0  0  0  0  0  0  0  0  0  0  0  0
   71.4180   29.6040   24.2990 C   0  0  0  0  0  0  0  0  0  0  0  0
   67.5400   33.8320   24.3200 C   0  0  0  0  0  0  0  0  0  0  0  0
   66.3190   35.0920   22.5820 C   0  0  0  0  0  0  0  0  0  0  0  0
   65.7020   34.8290   21.3940 C   0  0  0  0  0  0  0  0  0  0  0  0
   66.7020   36.7810   21.1690 N   0  0  0  0  0  0  0  0  0  0  0  0
   66.9190   36.3270   22.4730 N   0  0  0  0  0  0  0  0  0  0  0  0
   63.9330   34.2390   23.8710 O   0  0  0  0  0  0  0  0  0  0  0  0
   66.3480   32.7530   26.1600 C   0  0  0  0  0  0  0  0  0  0  0  0
   67.5620   33.1020   25.5110 C   0  0  0  0  0  0  0  0  0  0  0  0
   68.1080   32.0480   27.4080 N   0  0  0  0  0  0  0  0  0  0  0  0
   66.7200   32.0960   27.3130 N   0  0  0  0  0  0  0  0  0  0  0  0
   70.7190   31.8160   24.9990 C   0  0  0  0  0  0  0  0  0  0  0  0
   72.0010   30.1350   23.1500 C   0  0  0  0  0  0  0  0  0  0  0  0
   71.9580   31.5150   22.9310 C   0  0  0  0  0  0  0  0  0  0  0  0
   71.3280   32.3490   23.8600 C   0  0  0  0  0  0  0  0  0  0  0  0
  1 21  1  0  0  0  0
  2  1  2  0  0  0  0
  3 15  2  0  0  0  0
  3  2  1  0  0  0  0
  4 18  2  0  0  0  0
  4 17  1  0  0  0  0
  5 10  1  0  0  0  0
  6  5  2  0  0  0  0
  6  7  1  0  0  0  0
  7  8  2  0  0  0  0
  8  9  1  0  0  0  0
 10  9  2  0  0  0  0
 11 23  1  0  0  0  0
 12 11  1  0  0  0  0
 14 13  2  0  0  0  0
 15 22  1  0  0  0  0
 16  3  1  0  0  0  0
 17 16  2  0  0  0  0
 18 19  1  0  0  0  0
 19 16  1  0  0  0  0
 19  5  1  0  0  0  0
 20  2  1  0  0  0  0
 21 24  2  0  0  0  0
 22 21  1  0  0  0  0
 22 11  2  0  0  0  0
 24 23  1  0  0  0  0
 25 13  1  0  0  0  0
 25 12  1  0  0  0  0
 26 14  1  0  0  0  0
 27 26  2  0  0  0  0
 27 28  1  0  0  0  0
 28 25  2  0  0  0  0
M  END
>  <REMARK>
 800 SITE_DESCRIPTION: binding site for residue C3Z A 301                 

>  <HET>
 C3Z  A 301      28                                                       

>  <HETNAM>
     C3Z 3-(PHENYLMETHYL)-5-(2-PHENYLPYRAZOL-3-YL)-2~{H}-                 
   2 C3Z  INDAZOL-6-OL                                                    

>  <FORMUL>
   2  C3Z    C23 H18 N4 O                                                 

$$$$
