REMARK  Name = /web/media/ligands/6F1N_ligand.pdb
REMARK  9 active torsions:
REMARK  status: ('A' for Active; 'I' for Inactive)
REMARK    1  A    between atoms: C_1  and  C_13
REMARK    2  A    between atoms: C_1  and  O_14
REMARK    3  A    between atoms: C_4  and  C_5
REMARK    4  A    between atoms: C_11  and  C_24
REMARK    5  A    between atoms: C_13  and  C_28
REMARK    6  A    between atoms: O_14  and  C_22
REMARK    7  A    between atoms: C_16  and  C_17
REMARK    8  A    between atoms: C_23  and  O_25
REMARK    9  A    between atoms: C_28  and  C_29
REMARK                            x       y       z     vdW  Elec       q    Type
REMARK                         _______ _______ _______ _____ _____    ______ ____
ROOT
ATOM      1  C   UNL     1      65.604  34.641  24.826  0.00  0.00    +0.016 A 
ATOM      2  C   UNL     1      64.639  33.900  25.552  0.00  0.00    +0.103 A 
ATOM      3  C   UNL     1      63.312  33.825  25.040  0.00  0.00    +0.180 A 
ATOM      4  N   UNL     1      62.999  34.372  23.886  0.00  0.00    -0.220 NA
ATOM      5  C   UNL     1      63.882  35.079  23.160  0.00  0.00    +0.114 A 
ATOM      6  S   UNL     1      63.606  35.896  21.634  0.00  0.00    -0.062 S 
ATOM      7  C   UNL     1      65.254  36.488  21.535  0.00  0.00    +0.104 A 
ATOM      8  C   UNL     1      65.968  36.087  22.634  0.00  0.00    +0.102 A 
ATOM      9  N   UNL     1      67.310  36.437  22.797  0.00  0.00    -0.127 NA
ATOM     10  N   UNL     1      62.312  33.160  25.710  0.00  0.00    -0.106 NA
ATOM     11  C   UNL     1      65.210  35.270  23.590  0.00  0.00    +0.042 A 
ENDROOT
BRANCH   1  16
ATOM     12  C   UNL     1      68.613  36.222  26.471  0.00  0.00    +0.172 A 
ATOM     13  C   UNL     1      69.557  35.180  26.435  0.00  0.00    +0.172 A 
ATOM     14  C   UNL     1      69.185  33.946  25.887  0.00  0.00    +0.040 A 
ATOM     15  C   UNL     1      67.918  33.744  25.351  0.00  0.00    +0.003 A 
ATOM     16  C   UNL     1      66.982  34.792  25.363  0.00  0.00    +0.004 A 
ATOM     17  C   UNL     1      67.337  36.016  25.946  0.00  0.00    +0.040 A 
BRANCH  13  18
ATOM     18  O   UNL     1      70.812  35.399  26.959  0.00  0.00    -0.468 OA
ATOM     19  C   UNL     1      71.847  34.406  26.916  0.00  0.00    +0.253 C 
ENDBRANCH  13  18
BRANCH  12  20
ATOM     20  O   UNL     1      68.947  37.424  27.030  0.00  0.00    -0.472 OA
BRANCH  20  21
ATOM     21  C   UNL     1      67.991  38.503  27.067  0.00  0.00    +0.206 C 
BRANCH  21  22
ATOM     22  C   UNL     1      68.390  39.567  28.099  0.00  0.00    +0.059 C 
BRANCH  22  23
ATOM     23  C   UNL     1      69.557  40.434  27.600  0.00  0.00    +0.118 C 
BRANCH  23  24
ATOM     24  C   UNL     1      69.145  41.376  26.487  0.00  0.00    +0.365 C 
ATOM     25  O   UNL     1      69.433  41.075  25.205  0.00  0.00    -0.246 OA
ATOM     26  O   UNL     1      68.561  42.408  26.746  0.00  0.00    -0.246 OA
ENDBRANCH  23  24
ENDBRANCH  22  23
ENDBRANCH  21  22
ENDBRANCH  20  21
ENDBRANCH  12  20
ENDBRANCH   1  16
BRANCH   7  27
ATOM     27  C   UNL     1      65.753  37.261  20.434  0.00  0.00    +0.292 C 
ATOM     28  O   UNL     1      66.914  37.648  20.394  0.00  0.00    -0.266 OA
ATOM     29  N   UNL     1      64.960  37.530  19.379  0.00  0.00    -0.083 NA
ENDBRANCH   7  27
BRANCH   2  30
ATOM     30  C   UNL     1      65.004  33.264  26.800  0.00  0.00    +0.103 C 
ATOM     31  N   UNL     1      65.331  32.768  27.773  0.00  0.00    -0.191 NA
ENDBRANCH   2  30
TORSDOF 9
