REMARK  Name = /web/media/ligands/6EY9_ligand.pdb
REMARK  5 active torsions:
REMARK  status: ('A' for Active; 'I' for Inactive)
REMARK    1  A    between atoms: C_1  and  C_19
REMARK    2  A    between atoms: C_7  and  C_8
REMARK    3  A    between atoms: C_8  and  C_9
REMARK    4  A    between atoms: C_14  and  N_20
REMARK    5  A    between atoms: C_14  and  C_26
REMARK                            x       y       z     vdW  Elec       q    Type
REMARK                         _______ _______ _______ _____ _____    ______ ____
ROOT
ATOM      1  C   UNL     1      66.483  34.232  23.874  0.00  0.00    +0.093 A 
ATOM      2  C   UNL     1      65.330  33.809  24.577  0.00  0.00    +0.202 A 
ATOM      3  O   UNL     1      64.110  34.065  24.058  0.00  0.00    -0.286 OA
ATOM      4  C   UNL     1      65.432  33.084  25.754  0.00  0.00    +0.063 A 
ATOM      5  C   UNL     1      66.691  32.822  26.296  0.00  0.00    +0.107 A 
ATOM      6  N   UNL     1      67.108  32.238  27.464  0.00  0.00    -0.148 NA
ATOM      7  N   UNL     1      68.501  32.345  27.536  0.00  0.00    -0.152 NA
ATOM      8  C   UNL     1      68.990  32.849  26.437  0.00  0.00    +0.086 A 
ATOM      9  C   UNL     1      67.860  33.250  25.605  0.00  0.00    +0.035 A 
ATOM     10  C   UNL     1      67.758  33.886  24.359  0.00  0.00    +0.011 A 
ENDROOT
BRANCH   1  11
ATOM     11  C   UNL     1      66.369  34.933  22.567  0.00  0.00    +0.252 C 
ATOM     12  O   UNL     1      66.040  34.254  21.602  0.00  0.00    -0.270 OA
ATOM     13  N   UNL     1      66.702  36.251  22.407  0.00  0.00    -0.270 N 
ATOM     14  C   UNL     1      66.608  36.878  21.085  0.00  0.00    +0.116 C 
BRANCH  13  15
ATOM     15  C   UNL     1      67.000  37.162  23.526  0.00  0.00    +0.120 C 
BRANCH  15  16
ATOM     16  C   UNL     1      68.412  37.171  24.038  0.00  0.00    -0.002 A 
ATOM     17  C   UNL     1      69.510  37.106  23.179  0.00  0.00    -0.002 A 
ATOM     18  C   UNL     1      70.786  37.117  23.731  0.00  0.00    +0.011 A 
ATOM     19  C   UNL     1      70.959  37.192  25.117  0.00  0.00    +0.058 A 
ATOM     20  C   UNL     1      69.853  37.252  25.967  0.00  0.00    +0.011 A 
ATOM     21 CL   UNL     1      72.558  37.220  25.804  0.00  0.00    -0.082 Cl
ATOM     22  C   UNL     1      68.576  37.244  25.424  0.00  0.00    -0.002 A 
ENDBRANCH  15  16
ENDBRANCH  13  15
ENDBRANCH   1  11
BRANCH   8  23
ATOM     23  C   UNL     1      70.443  33.206  26.192  0.00  0.00    +0.074 C 
BRANCH  23  24
ATOM     24  C   UNL     1      71.141  32.550  25.030  0.00  0.00    -0.016 A 
ATOM     25  C   UNL     1      71.656  33.351  24.005  0.00  0.00    -0.004 A 
ATOM     26  C   UNL     1      72.400  32.789  22.959  0.00  0.00    -0.001 A 
ATOM     27  C   UNL     1      72.657  31.424  22.956  0.00  0.00    -0.004 A 
ATOM     28  C   UNL     1      72.168  30.631  23.996  0.00  0.00    -0.022 A 
ATOM     29  C   UNL     1      72.487  29.171  23.986  0.00  0.00    +0.031 C 
ATOM     30  C   UNL     1      71.419  31.180  25.042  0.00  0.00    -0.008 A 
ENDBRANCH  23  24
ENDBRANCH   8  23
TORSDOF 5
