/web/media/ligands/6EY9_ligand.pdb
 OpenBabel04242009293D

 30 33  0  0  0  0  0  0  0  0999 V2000
   66.4830   34.2320   23.8740 C   0  0  0  0  0  0  0  0  0  0  0  0
   65.3300   33.8090   24.5770 C   0  0  0  0  0  0  0  0  0  0  0  0
   65.4320   33.0840   25.7540 C   0  0  0  0  0  0  0  0  0  0  0  0
   64.1100   34.0650   24.0580 O   0  0  0  0  0  0  0  0  0  0  0  0
   67.8600   33.2500   25.6050 C   0  0  0  0  0  0  0  0  0  0  0  0
   66.6910   32.8220   26.2960 C   0  0  0  0  0  0  0  0  0  0  0  0
   68.9900   32.8490   26.4370 C   0  0  0  0  0  0  0  0  0  0  0  0
   70.4430   33.2060   26.1920 C   0  0  0  0  0  0  0  0  0  0  0  0
   71.1410   32.5500   25.0300 C   0  0  0  0  0  0  0  0  0  0  0  0
   71.6560   33.3510   24.0050 C   0  0  0  0  0  0  0  0  0  0  0  0
   72.4000   32.7890   22.9590 C   0  0  0  0  0  0  0  0  0  0  0  0
   71.4190   31.1800   25.0420 C   0  0  0  0  0  0  0  0  0  0  0  0
   66.6080   36.8780   21.0850 C   0  0  0  0  0  0  0  0  0  0  0  0
   67.0000   37.1620   23.5260 C   0  0  0  0  0  0  0  0  0  0  0  0
   68.5760   37.2440   25.4240 C   0  0  0  0  0  0  0  0  0  0  0  0
   69.8530   37.2520   25.9670 C   0  0  0  0  0  0  0  0  0  0  0  0
   72.4870   29.1710   23.9860 C   0  0  0  0  0  0  0  0  0  0  0  0
   67.7580   33.8860   24.3590 C   0  0  0  0  0  0  0  0  0  0  0  0
   66.3690   34.9330   22.5670 C   0  0  0  0  0  0  0  0  0  0  0  0
   66.7020   36.2510   22.4070 N   0  0  0  0  0  0  0  0  0  0  0  0
   66.0400   34.2540   21.6020 O   0  0  0  0  0  0  0  0  0  0  0  0
   67.1080   32.2380   27.4640 N   0  0  0  0  0  0  0  0  0  0  0  0
   68.5010   32.3450   27.5360 N   0  0  0  0  0  0  0  0  0  0  0  0
   72.6570   31.4240   22.9560 C   0  0  0  0  0  0  0  0  0  0  0  0
   72.1680   30.6310   23.9960 C   0  0  0  0  0  0  0  0  0  0  0  0
   68.4120   37.1710   24.0380 C   0  0  0  0  0  0  0  0  0  0  0  0
   70.9590   37.1920   25.1170 C   0  0  0  0  0  0  0  0  0  0  0  0
   70.7860   37.1170   23.7310 C   0  0  0  0  0  0  0  0  0  0  0  0
   69.5100   37.1060   23.1790 C   0  0  0  0  0  0  0  0  0  0  0  0
   72.5580   37.2200   25.8040 Cl  0  0  0  0  0  0  0  0  0  0  0  0
  1 18  2  0  0  0  0
  1  2  1  0  0  0  0
  2  3  2  0  0  0  0
  3  6  1  0  0  0  0
  4  2  1  0  0  0  0
  5  6  2  0  0  0  0
  5  7  1  0  0  0  0
  6 22  1  0  0  0  0
  7 23  2  0  0  0  0
  8  7  1  0  0  0  0
  9 12  1  0  0  0  0
  9  8  1  0  0  0  0
 10  9  2  0  0  0  0
 11 10  1  0  0  0  0
 13 20  1  0  0  0  0
 14 26  1  0  0  0  0
 15 16  1  0  0  0  0
 17 25  1  0  0  0  0
 18  5  1  0  0  0  0
 19  1  1  0  0  0  0
 20 19  1  0  0  0  0
 20 14  1  0  0  0  0
 21 19  2  0  0  0  0
 22 23  1  0  0  0  0
 24 11  2  0  0  0  0
 24 25  1  0  0  0  0
 25 12  2  0  0  0  0
 26 15  2  0  0  0  0
 27 30  1  0  0  0  0
 27 16  2  0  0  0  0
 28 27  1  0  0  0  0
 29 28  2  0  0  0  0
 29 26  1  0  0  0  0
M  END
>  <REMARK>
 800 SITE_DESCRIPTION: binding site for residue C4N A 302                 

>  <HET>
 C4N  A 302      30                                                       

>  <HETNAM>
     C4N ~{N}-[(4-CHLOROPHENYL)METHYL]-~{N}-METHYL-3-[(3-                 
   2 C4N  METHYLPHENYL)METHYL]-6-OXIDANYL-1~{H}-INDAZOLE-5-               
   3 C4N  CARBOXAMIDE                                                     

>  <FORMUL>
   3  C4N    C24 H22 CL N3 O2                                             

$$$$
