@<TRIPOS>MOLECULE
6GC
   50    52     1     0     0
SMALL
bcc


@<TRIPOS>ATOM
      1 C            0.0920    38.0230   -24.6890 ca         0 6GC      -0.078000
      2 C1          -0.3750    33.1730   -23.1650 ca         0 6GC       0.210100
      3 C2          -1.6520    33.4700   -23.6440 ca         0 6GC      -0.321000
      4 C3           0.8110    33.6700   -23.8650 ca         0 6GC      -0.199600
      5 C4          -0.6750    35.6050   -26.6490 cc         0 6GC       0.441500
      6 C5          -0.4010    37.3680   -27.9300 c          0 6GC       0.739500
      7 C6           0.6420    37.4450   -25.8300 ca         0 6GC       0.014600
      8 C7           2.2100    38.6950   -23.7750 ca         0 6GC      -0.090000
      9 C8           2.2490    33.3670   -23.5020 c          0 6GC       0.692700
     10 C9           4.8600    32.0010   -25.1690 c3         0 6GC      -0.099400
     11 C10          6.9100    31.5660   -26.5190 c3         0 6GC      -0.092100
     12 C11         -1.7920    34.2600   -24.7860 ca         0 6GC       0.220100
     13 C12         -0.5900    34.7380   -25.4770 ca         0 6GC      -0.185900
     14 C13          0.6470    34.4260   -24.9860 ca         0 6GC       0.004000
     15 N           -1.4020    35.3850   -27.7800 nd         0 6GC      -0.489300
     16 N1          -0.1200    36.8410   -26.7620 n          0 6GC      -0.312500
     17 O           -3.0020    34.5790   -25.3110 oh         0 6GC      -0.468100
     18 O1          -0.2020    32.4230   -22.0540 oh         0 6GC      -0.484100
     19 N2          -1.1860    36.5170   -28.5790 n          0 6GC      -0.258900
     20 O2           0.0000    38.5170   -28.3110 o          0 6GC      -0.589500
     21 C14          2.1030    37.5390   -25.9060 ca         0 6GC       0.126900
     22 C15          2.8460    38.1470   -24.8930 ca         0 6GC      -0.152000
     23 N3           2.7550    32.1640   -23.8240 n          0 6GC      -0.465800
     24 O3           2.9340    34.2370   -23.0180 o          0 6GC      -0.604100
     25 C16          4.2020    31.7900   -23.7930 c3         0 6GC       0.093000
     26 C17          0.8290    38.6250   -23.6700 ca         0 6GC      -0.142000
     27 C18          1.8890    31.0690   -24.2290 c3         0 6GC       0.085300
     28 C19          6.0860    31.1070   -25.3450 c3         0 6GC      -0.079400
     29 F            2.6690    37.0180   -27.0030 f          0 6GC      -0.136900
     30 H           -0.9830    37.9670   -24.5660 ha         0 6GC       0.154000
     31 H1          -2.5290    33.1070   -23.1210 ha         0 6GC       0.144000
     32 H2           2.7910    39.1770   -22.9990 ha         0 6GC       0.144000
     33 H3           5.1570    33.0470   -25.2720 hc         0 6GC       0.047200
     34 H4           4.1360    31.7810   -25.9550 hc         0 6GC       0.047200
     35 H5           6.3240    31.5230   -27.4000 hc         0 6GC       0.033700
     36 H6           7.7540    30.9350   -26.6250 hc         0 6GC       0.033700
     37 H7           7.2320    32.5620   -26.3570 hc         0 6GC       0.033700
     38 H8           1.5250    34.7910   -25.5050 ha         0 6GC       0.167000
     39 H9          -3.7020    34.2030   -24.7600 ho         0 6GC       0.427000
     40 H10         -1.0650    32.1670   -21.7000 ho         0 6GC       0.428000
     41 H11         -1.6400    36.5160   -29.5140 hn         0 6GC       0.340500
     42 H12          3.9230    38.2140   -24.9840 ha         0 6GC       0.157000
     43 H13          4.3000    30.7430   -23.5000 h1         0 6GC       0.059200
     44 H14          4.7180    32.3970   -23.0460 h1         0 6GC       0.059200
     45 H15          0.3270    39.0430   -22.8070 ha         0 6GC       0.142000
     46 H16          1.3490    31.3470   -25.0960 h1         0 6GC       0.041033
     47 H17          1.2100    30.8480   -23.4470 h1         0 6GC       0.041033
     48 H18          2.4770    30.2130   -24.4380 h1         0 6GC       0.041033
     49 H19          5.7670    30.0750   -25.5040 hc         0 6GC       0.040200
     50 H20          6.6940    31.1370   -24.4380 hc         0 6GC       0.040200
@<TRIPOS>BOND
     1     1     7 ar  
     2     1    26 ar  
     3     1    30 1   
     4     2     3 ar  
     5     2     4 ar  
     6     2    18 1   
     7     3    12 ar  
     8     3    31 1   
     9     4     9 1   
    10     4    14 ar  
    11     5    13 1   
    12     5    15 2   
    13     5    16 1   
    14     6    16 1   
    15     6    19 1   
    16     6    20 2   
    17     7    16 1   
    18     7    21 ar  
    19     8    22 ar  
    20     8    26 ar  
    21     8    32 1   
    22     9    23 1   
    23     9    24 2   
    24    10    25 1   
    25    10    28 1   
    26    10    33 1   
    27    10    34 1   
    28    11    28 1   
    29    11    35 1   
    30    11    36 1   
    31    11    37 1   
    32    12    13 ar  
    33    12    17 1   
    34    13    14 ar  
    35    14    38 1   
    36    15    19 1   
    37    17    39 1   
    38    18    40 1   
    39    19    41 1   
    40    21    22 ar  
    41    21    29 1   
    42    22    42 1   
    43    23    25 1   
    44    23    27 1   
    45    25    43 1   
    46    25    44 1   
    47    26    45 1   
    48    27    46 1   
    49    27    47 1   
    50    27    48 1   
    51    28    49 1   
    52    28    50 1   
@<TRIPOS>SUBSTRUCTURE
     1 6GC         1 TEMP              0 ****  ****    0 ROOT
