@<TRIPOS>MOLECULE
70Z
  130   231     1     0     0
SMALL
No Charge or Current Charge


@<TRIPOS>ATOM
      1 C1           0.7340    10.4480    22.5250 ANY      301 70Z       0.000000
      2 C8           0.7350    10.4560    22.5300 ANY      301 70Z       0.000000
      3 N2           0.1030     9.2610    22.3220 ANY      301 70Z       0.000000
      4 N3           0.0970     9.2770    22.3270 ANY      301 70Z       0.000000
      5 O3           1.3940    10.9680    21.6780 O.3      301 70Z       0.000000
      6 O4           1.3930    10.9720    21.6790 O.3      301 70Z       0.000000
      7 C4           0.6590    11.0820    23.8540 ANY      301 70Z       0.000000
      8 C12          0.6600    11.0860    23.8590 ANY      301 70Z       0.000000
      9 C5          -0.5550    11.3760    24.4520 ANY      301 70Z       0.000000
     10 C13         -0.5540    11.3750    24.4590 ANY      301 70Z       0.000000
     11 C6           1.8170    11.9250    25.7920 ANY      301 70Z       0.000000
     12 C15          1.8200    11.9240    25.7950 ANY      301 70Z       0.000000
     13 C7           1.8550    11.3710    24.5390 ANY      301 70Z       0.000000
     14 C23          1.8570    11.3740    24.5400 ANY      301 70Z       0.000000
     15 O8           3.0430    11.0980    23.9880 ANY      301 70Z       0.000000
     16 O5           3.0430    11.1020    23.9850 ANY      301 70Z       0.000000
     17 C9           0.6150    12.2210    26.4010 ANY      301 70Z       0.000000
     18 C24          0.6200    12.2170    26.4060 ANY      301 70Z       0.000000
     19 C10         -0.5650    11.9350    25.7150 ANY      301 70Z       0.000000
     20 C27         -0.5620    11.9320    25.7230 ANY      301 70Z       0.000000
     21 C11         -1.6010    12.3670    26.6500 ANY      301 70Z       0.000000
     22 C35         -1.5920    12.3560    26.6660 ANY      301 70Z       0.000000
     23 N12         -0.9960    12.8330    27.7170 ANY      301 70Z       0.000000
     24 N4          -0.9870    12.8280    27.7280 ANY      301 70Z       0.000000
     25 N13          0.2630    12.7560    27.6030 N.4      301 70Z       0.000000
     26 N5           0.2700    12.7500    27.6100 N.4      301 70Z       0.000000
     27 C14         -3.0470    12.3160    26.3450 ANY      301 70Z       0.000000
     28 C36         -3.0380    12.3130    26.3570 ANY      301 70Z       0.000000
     29 O15         -3.6510    11.3710    26.6990 O.3      301 70Z       0.000000
     30 O6          -3.6500    11.3660    26.6900 O.3      301 70Z       0.000000
     31 C16         -0.6590     8.6120    23.3010 ANY      301 70Z       0.000000
     32 C37         -0.6620     8.6150    23.2970 ANY      301 70Z       0.000000
     33 C17         -2.0070     8.4130    23.0730 ANY      301 70Z       0.000000
     34 C38         -2.0070     8.3910    23.0670 ANY      301 70Z       0.000000
     35 C18         -2.2720     7.3030    25.1930 ANY      301 70Z       0.000000
     36 C39         -2.2460     7.2610    25.1740 ANY      301 70Z       0.000000
     37 C19         -0.9130     7.5010    25.4190 ANY      301 70Z       0.000000
     38 C40         -0.8890     7.4750    25.3930 ANY      301 70Z       0.000000
     39 C20         -2.8000     7.7740    23.9950 ANY      301 70Z       0.000000
     40 C41         -2.7890     7.7260    23.9810 ANY      301 70Z       0.000000
     41 C21         -0.1210     8.1360    24.4830 ANY      301 70Z       0.000000
     42 C42         -0.1110     8.1340    24.4680 ANY      301 70Z       0.000000
     43 C22          0.1890     8.6140    21.0350 ANY      301 70Z       0.000000
     44 C43          0.1850     8.6270    21.0410 ANY      301 70Z       0.000000
     45 N23         -3.1090     6.6740    26.1480 ANY      301 70Z       0.000000
     46 N6          -3.0380     6.5670    26.1200 ANY      301 70Z       0.000000
     47 N24         -3.6040    13.3640    25.6620 ANY      301 70Z       0.000000
     48 N7          -3.5850    13.3780    25.6910 ANY      301 70Z       0.000000
     49 C25         -2.5050     6.1620    27.3700 ANY      301 70Z       0.000000
     50 C44         -4.4340     6.2910    25.8120 ANY      301 70Z       0.000000
     51 C26         -3.5590     5.7510    28.4060 ANY      301 70Z       0.000000
     52 C45         -5.1130     5.3830    26.8390 ANY      301 70Z       0.000000
     53 O27         -4.5660     5.0020    27.7780 ANY      301 70Z       0.000000
     54 O7          -4.6320     5.6400    28.1420 ANY      301 70Z       0.000000
     55 C28         -5.2640     5.7220    26.7930 ANY      301 70Z       0.000000
     56 C46         -3.2670     5.4180    28.3060 ANY      301 70Z       0.000000
     57 C29         -4.3020     6.0120    25.6520 ANY      301 70Z       0.000000
     58 C47         -2.5430     6.4720    27.4840 ANY      301 70Z       0.000000
     59 C30         -5.0190    13.4380    25.3480 ANY      301 70Z       0.000000
     60 C48         -5.0050    13.4530    25.3730 ANY      301 70Z       0.000000
     61 C31         -5.3580    13.7200    23.8950 ANY      301 70Z       0.000000
     62 C49         -5.3000    13.5620    23.8900 ANY      301 70Z       0.000000
     63 C32         -6.8220    13.2890    23.7460 ANY      301 70Z       0.000000
     64 C50         -4.8550    14.9290    23.4320 ANY      301 70Z       0.000000
     65 C33         -2.8210    14.5340    25.2620 ANY      301 70Z       0.000000
     66 C51         -2.7760    14.5540    25.3240 ANY      301 70Z       0.000000
     67 C34         -7.4390    13.9460    22.5270 C.3      301 70Z       0.000000
     68 C52         -5.8460    15.9460    23.9420 C.3      301 70Z       0.000000
     69 H01         -1.4910    11.1690    23.9330 H        301 70Z       0.000000
     70 H02         -1.4900    11.1660    23.9410 H        301 70Z       0.000000
     71 H03          2.7500    12.1350    26.3150 H        301 70Z       0.000000
     72 H04          2.7540    12.1330    26.3170 H        301 70Z       0.000000
     73 H05          3.2840    11.8020    23.3810 H        301 70Z       0.000000
     74 H06          3.2840    11.8080    23.3810 H        301 70Z       0.000000
     75 H07         -1.4730    13.2050    28.5260 H        301 70Z       0.000000
     76 H08         -1.4620    13.2050    28.5360 H        301 70Z       0.000000
     77 H09         -2.4500     8.7700    22.1430 H        301 70Z       0.000000
     78 H10         -2.4570     8.7490    22.1410 H        301 70Z       0.000000
     79 H11         -0.4670     7.1490    26.3490 H        301 70Z       0.000000
     80 H12         -0.4330     7.1140    26.3150 H        301 70Z       0.000000
     81 H13         -3.8600     7.6340    23.7850 H        301 70Z       0.000000
     82 H14         -3.8450     7.5610    23.7690 H        301 70Z       0.000000
     83 H15          0.9440     8.2640    24.6780 H        301 70Z       0.000000
     84 H16          0.9520     8.2780    24.6620 H        301 70Z       0.000000
     85 H17          1.2300     8.5800    20.7150 H        301 70Z       0.000000
     86 H18         -0.2000     7.5990    21.1110 H        301 70Z       0.000000
     87 H19         -0.3960     9.1740    20.3060 H        301 70Z       0.000000
     88 H20          1.2280     8.5830    20.7280 H        301 70Z       0.000000
     89 H21         -0.2140     7.6160    21.1160 H        301 70Z       0.000000
     90 H22         -0.3910     9.1920    20.3080 H        301 70Z       0.000000
     91 H23         -1.9000     6.9580    27.8040 H        301 70Z       0.000000
     92 H24         -1.8950     5.2930    27.1240 H        301 70Z       0.000000
     93 H25         -4.4560     5.7680    24.8560 H        301 70Z       0.000000
     94 H26         -4.9740     7.2370    25.7750 H        301 70Z       0.000000
     95 H27         -3.9960     6.6440    28.8530 H        301 70Z       0.000000
     96 H28         -3.0890     5.1490    29.1840 H        301 70Z       0.000000
     97 H29         -4.8890     4.3470    26.5860 H        301 70Z       0.000000
     98 H30         -6.1880     5.5590    26.8150 H        301 70Z       0.000000
     99 H31         -5.6500     6.6530    27.2080 H        301 70Z       0.000000
    100 H32         -6.1040     5.1310    26.4280 H        301 70Z       0.000000
    101 H33         -2.9940     4.4150    27.9780 H        301 70Z       0.000000
    102 H34         -2.9960     5.5110    29.3580 H        301 70Z       0.000000
    103 H35         -4.0140     5.0700    25.1860 H        301 70Z       0.000000
    104 H36         -4.7930     6.6560    24.9230 H        301 70Z       0.000000
    105 H37         -2.7180     7.4360    27.9620 H        301 70Z       0.000000
    106 H38         -1.4830     6.2210    27.4530 H        301 70Z       0.000000
    107 H39         -5.4040    14.2870    25.9120 H        301 70Z       0.000000
    108 H40         -5.4730    12.4850    25.6190 H        301 70Z       0.000000
    109 H41         -5.3840    14.3630    25.8370 H        301 70Z       0.000000
    110 H42         -5.4900    12.5550    25.7550 H        301 70Z       0.000000
    111 H43         -4.7000    13.1890    23.2080 H        301 70Z       0.000000
    112 H44         -5.2440    14.7810    23.6720 H        301 70Z       0.000000
    113 H45         -6.3650    13.4250    23.7020 H        301 70Z       0.000000
    114 H46         -4.7550    12.7920    23.3450 H        301 70Z       0.000000
    115 H47         -7.3750    13.5960    24.6340 H        301 70Z       0.000000
    116 H48         -6.8700    12.2060    23.6350 H        301 70Z       0.000000
    117 H49         -4.8090    14.9630    22.3440 H        301 70Z       0.000000
    118 H50         -3.8640    15.1470    23.8300 H        301 70Z       0.000000
    119 H51         -1.8590    14.2090    24.8670 H        301 70Z       0.000000
    120 H52         -3.3600    15.0870    24.4930 H        301 70Z       0.000000
    121 H53         -2.6590    15.1770    26.1270 H        301 70Z       0.000000
    122 H54         -1.8180    14.2240    24.9220 H        301 70Z       0.000000
    123 H55         -3.3040    15.1380    24.5700 H        301 70Z       0.000000
    124 H56         -2.6060    15.1690    26.2080 H        301 70Z       0.000000
    125 H57         -8.3380    14.4880    22.8230 H        301 70Z       0.000000
    126 H58         -6.7240    14.6420    22.0880 H        301 70Z       0.000000
    127 H59         -7.7000    13.1820    21.7950 H        301 70Z       0.000000
    128 H60         -6.7740    15.4430    24.2160 H        301 70Z       0.000000
    129 H61         -5.4340    16.4480    24.8170 H        301 70Z       0.000000
    130 H62         -6.0480    16.6800    23.1620 H        301 70Z       0.000000
@<TRIPOS>BOND
     1     1     3 1   
     2     1     4 1   
     3     1     5 1   
     4     1     6 1   
     5     1     7 1   
     6     1     8 1   
     7     2     3 1   
     8     2     4 1   
     9     2     5 1   
    10     2     6 1   
    11     2     7 1   
    12     2     8 1   
    13     3    31 1   
    14     3    32 1   
    15     3    43 1   
    16     3    44 1   
    17     4    31 1   
    18     4    32 1   
    19     4    43 1   
    20     4    44 1   
    21     7     9 1   
    22     7    10 1   
    23     7    13 1   
    24     7    14 1   
    25     8     9 1   
    26     8    10 1   
    27     8    13 1   
    28     8    14 1   
    29     9    19 1   
    30     9    20 1   
    31     9    69 1   
    32     9    70 1   
    33    10    19 1   
    34    10    20 1   
    35    10    69 1   
    36    10    70 1   
    37    11    13 1   
    38    11    14 1   
    39    11    17 1   
    40    11    18 1   
    41    11    71 1   
    42    11    72 1   
    43    12    13 1   
    44    12    14 1   
    45    12    17 1   
    46    12    18 1   
    47    12    71 1   
    48    12    72 1   
    49    13    15 1   
    50    13    16 1   
    51    14    15 1   
    52    14    16 1   
    53    15    73 1   
    54    15    74 1   
    55    16    73 1   
    56    16    74 1   
    57    17    19 1   
    58    17    20 1   
    59    17    25 1   
    60    17    26 1   
    61    18    19 1   
    62    18    20 1   
    63    18    25 1   
    64    18    26 1   
    65    19    21 1   
    66    19    22 1   
    67    20    21 1   
    68    20    22 1   
    69    21    23 1   
    70    21    24 1   
    71    21    27 1   
    72    21    28 1   
    73    22    23 1   
    74    22    24 1   
    75    22    27 1   
    76    22    28 1   
    77    23    25 1   
    78    23    26 1   
    79    23    75 1   
    80    23    76 1   
    81    24    25 1   
    82    24    26 1   
    83    24    75 1   
    84    24    76 1   
    85    27    29 1   
    86    27    30 1   
    87    27    47 1   
    88    27    48 1   
    89    28    29 1   
    90    28    30 1   
    91    28    47 1   
    92    28    48 1   
    93    31    33 1   
    94    31    34 1   
    95    31    41 1   
    96    31    42 1   
    97    32    33 1   
    98    32    34 1   
    99    32    41 1   
   100    32    42 1   
   101    33    39 1   
   102    33    40 1   
   103    33    77 1   
   104    33    78 1   
   105    34    39 1   
   106    34    40 1   
   107    34    77 1   
   108    34    78 1   
   109    35    37 1   
   110    35    38 1   
   111    35    39 1   
   112    35    40 1   
   113    35    45 1   
   114    35    46 1   
   115    36    37 1   
   116    36    38 1   
   117    36    39 1   
   118    36    40 1   
   119    36    45 1   
   120    36    46 1   
   121    37    41 1   
   122    37    42 1   
   123    37    79 1   
   124    37    80 1   
   125    38    41 1   
   126    38    42 1   
   127    38    79 1   
   128    38    80 1   
   129    39    81 1   
   130    39    82 1   
   131    40    81 1   
   132    40    82 1   
   133    41    83 1   
   134    41    84 1   
   135    42    83 1   
   136    42    84 1   
   137    43    85 1   
   138    43    86 1   
   139    43    87 1   
   140    43    88 1   
   141    44    85 1   
   142    44    86 1   
   143    44    87 1   
   144    44    88 1   
   145    45    49 1   
   146    45    50 1   
   147    45    57 1   
   148    45    58 1   
   149    46    49 1   
   150    46    50 1   
   151    46    57 1   
   152    46    58 1   
   153    47    59 1   
   154    47    60 1   
   155    47    65 1   
   156    47    66 1   
   157    48    59 1   
   158    48    60 1   
   159    48    65 1   
   160    48    66 1   
   161    49    51 1   
   162    49    56 1   
   163    49    91 1   
   164    49    92 1   
   165    50    52 1   
   166    50    55 1   
   167    50    93 1   
   168    50    94 1   
   169    51    53 1   
   170    51    54 1   
   171    51    58 1   
   172    51    95 1   
   173    51    96 1   
   174    52    53 1   
   175    52    54 1   
   176    52    57 1   
   177    52    97 1   
   178    52    98 1   
   179    53    55 1   
   180    53    56 1   
   181    54    55 1   
   182    54    56 1   
   183    55    57 1   
   184    55    98 1   
   185    55    99 1   
   186    56    58 1   
   187    56    96 1   
   188    56   101 1   
   189    57    93 1   
   190    57   103 1   
   191    58    91 1   
   192    58   105 1   
   193    59    61 1   
   194    59    62 1   
   195    59   107 1   
   196    59   108 1   
   197    60    61 1   
   198    60    62 1   
   199    60   107 1   
   200    60   108 1   
   201    61    63 1   
   202    61    64 1   
   203    61   111 1   
   204    61   112 1   
   205    62    63 1   
   206    62    64 1   
   207    62   111 1   
   208    62   112 1   
   209    63    67 1   
   210    63   115 1   
   211    63   116 1   
   212    64    68 1   
   213    64   117 1   
   214    64   118 1   
   215    65   119 1   
   216    65   120 1   
   217    65   121 1   
   218    65   122 1   
   219    66   119 1   
   220    66   120 1   
   221    66   121 1   
   222    66   122 1   
   223    67   125 1   
   224    67   126 1   
   225    67   127 1   
   226    68   128 1   
   227    68   129 1   
   228    68   130 1   
   229    96   102 1   
   230    98   100 1   
   231   111   114 1   
@<TRIPOS>SUBSTRUCTURE
     1 70Z         1 TEMP              0 ****  ****    0 ROOT
