@<TRIPOS>MOLECULE
70Z
   65    68     1     0     0
SMALL
bcc


@<TRIPOS>ATOM
      1 C1           0.7350    10.4560    22.5300 c        301 70Z       0.681700
      2 N2           0.0970     9.2770    22.3270 n        301 70Z      -0.380000
      3 O3           1.3930    10.9720    21.6790 o        301 70Z      -0.626100
      4 C4           0.6600    11.0860    23.8590 ca       301 70Z      -0.189600
      5 C5          -0.5540    11.3750    24.4590 ca       301 70Z      -0.001000
      6 C6           1.8200    11.9240    25.7950 ca       301 70Z      -0.146000
      7 C7           1.8570    11.3740    24.5400 ca       301 70Z       0.164100
      8 O8           3.0430    11.1020    23.9850 oh       301 70Z      -0.511100
      9 C9           0.6200    12.2170    26.4060 ca       301 70Z      -0.046000
     10 C10         -0.5620    11.9320    25.7230 ca       301 70Z      -0.113000
     11 C11         -1.5920    12.3560    26.6660 cc       301 70Z      -0.163300
     12 N12         -0.9870    12.8280    27.7280 na       301 70Z       0.077800
     13 N13          0.2700    12.7500    27.6100 nc       301 70Z      -0.263400
     14 C14         -3.0380    12.3130    26.3570 c        301 70Z       0.691300
     15 O15         -3.6500    11.3660    26.6900 o        301 70Z      -0.577100
     16 C16         -0.6620     8.6150    23.2970 ca       301 70Z      -0.004400
     17 C17         -2.0070     8.3910    23.0670 ca       301 70Z      -0.103000
     18 C18         -2.2460     7.2610    25.1740 ca       301 70Z       0.143600
     19 C19         -0.8890     7.4750    25.3930 ca       301 70Z      -0.158000
     20 C20         -2.7890     7.7260    23.9810 ca       301 70Z      -0.158000
     21 C21         -0.1110     8.1340    24.4680 ca       301 70Z      -0.103000
     22 C22          0.1850     8.6270    21.0410 c3       301 70Z       0.082300
     23 N23         -3.0380     6.5670    26.1200 nh       301 70Z      -0.629000
     24 N24         -3.5850    13.3780    25.6910 n        301 70Z      -0.472800
     25 C25         -4.4340     6.2910    25.8120 c3       301 70Z       0.147300
     26 C26         -5.1130     5.3830    26.8390 c3       301 70Z       0.123900
     27 O27         -4.6320     5.6400    28.1420 os       301 70Z      -0.413600
     28 C28         -3.2670     5.4180    28.3060 c3       301 70Z       0.123900
     29 C29         -2.5430     6.4720    27.4840 c3       301 70Z       0.147300
     30 C30         -5.0050    13.4530    25.3730 c3       301 70Z       0.093000
     31 C31         -5.3000    13.5620    23.8900 c3       301 70Z      -0.107400
     32 C32         -4.8550    14.9290    23.4320 c3       301 70Z      -0.083400
     33 C33         -2.7760    14.5540    25.3240 c3       301 70Z       0.069300
     34 C34         -5.8460    15.9460    23.9420 c3       301 70Z      -0.095100
     35 H01         -1.4900    11.1660    23.9410 ha       301 70Z       0.163000
     36 H02          2.7540    12.1330    26.3170 ha       301 70Z       0.167000
     37 H03          3.2840    11.8080    23.3810 ho       301 70Z       0.451000
     38 H04         -1.4620    13.2050    28.5360 hn       301 70Z       0.330700
     39 H05         -2.4570     8.7490    22.1410 ha       301 70Z       0.141500
     40 H06         -0.4330     7.1140    26.3150 ha       301 70Z       0.140000
     41 H07         -3.8450     7.5610    23.7690 ha       301 70Z       0.140000
     42 H08          0.9520     8.2780    24.6620 ha       301 70Z       0.141500
     43 H09          1.2280     8.5830    20.7280 h1       301 70Z       0.049700
     44 H10         -0.2140     7.6160    21.1160 h1       301 70Z       0.049700
     45 H11         -0.3910     9.1920    20.3080 h1       301 70Z       0.049700
     46 H12         -4.4560     5.7680    24.8560 h1       301 70Z       0.050450
     47 H13         -4.9740     7.2370    25.7750 h1       301 70Z       0.050450
     48 H14         -4.8890     4.3470    26.5860 h1       301 70Z       0.055950
     49 H15         -6.1880     5.5590    26.8150 h1       301 70Z       0.055950
     50 H16         -2.9940     4.4150    27.9780 h1       301 70Z       0.055950
     51 H17         -2.9960     5.5110    29.3580 h1       301 70Z       0.055950
     52 H18         -2.7180     7.4360    27.9620 h1       301 70Z       0.050450
     53 H19         -1.4830     6.2210    27.4530 h1       301 70Z       0.050450
     54 H20         -5.3840    14.3630    25.8370 h1       301 70Z       0.059200
     55 H21         -5.4900    12.5550    25.7550 h1       301 70Z       0.059200
     56 H22         -6.3650    13.4250    23.7020 hc       301 70Z       0.058200
     57 H23         -4.7550    12.7920    23.3450 hc       301 70Z       0.058200
     58 H24         -4.8090    14.9630    22.3440 hc       301 70Z       0.041700
     59 H25         -3.8640    15.1470    23.8300 hc       301 70Z       0.041700
     60 H26         -1.8180    14.2240    24.9220 h1       301 70Z       0.044700
     61 H27         -3.3040    15.1380    24.5700 h1       301 70Z       0.044700
     62 H28         -2.6060    15.1690    26.2080 h1       301 70Z       0.044700
     63 H29         -6.7740    15.4430    24.2160 hc       301 70Z       0.033367
     64 H30         -5.4340    16.4480    24.8170 hc       301 70Z       0.033367
     65 H31         -6.0480    16.6800    23.1620 hc       301 70Z       0.033367
@<TRIPOS>BOND
     1     1     2 1   
     2     1     3 2   
     3     1     4 1   
     4     2    16 1   
     5     2    22 1   
     6     4     5 ar  
     7     4     7 ar  
     8     5    10 ar  
     9     5    35 1   
    10     6     7 ar  
    11     6     9 ar  
    12     6    36 1   
    13     7     8 1   
    14     8    37 1   
    15     9    10 ar  
    16     9    13 2   
    17    10    11 2   
    18    11    12 1   
    19    11    14 1   
    20    12    13 1   
    21    12    38 1   
    22    14    15 2   
    23    14    24 1   
    24    16    17 ar  
    25    16    21 ar  
    26    17    20 ar  
    27    17    39 1   
    28    18    19 ar  
    29    18    20 ar  
    30    18    23 1   
    31    19    21 ar  
    32    19    40 1   
    33    20    41 1   
    34    21    42 1   
    35    22    43 1   
    36    22    44 1   
    37    22    45 1   
    38    23    25 1   
    39    23    29 1   
    40    24    30 1   
    41    24    33 1   
    42    25    26 1   
    43    25    46 1   
    44    25    47 1   
    45    26    27 1   
    46    26    48 1   
    47    26    49 1   
    48    27    28 1   
    49    28    29 1   
    50    28    50 1   
    51    28    51 1   
    52    29    52 1   
    53    29    53 1   
    54    30    31 1   
    55    30    54 1   
    56    30    55 1   
    57    31    32 1   
    58    31    56 1   
    59    31    57 1   
    60    32    34 1   
    61    32    58 1   
    62    32    59 1   
    63    33    60 1   
    64    33    61 1   
    65    33    62 1   
    66    34    63 1   
    67    34    64 1   
    68    34    65 1   
@<TRIPOS>SUBSTRUCTURE
     1 70Z         1 TEMP              0 ****  ****    0 ROOT
