@<TRIPOS>MOLECULE
70Z
   65    68     1     0     0
SMALL
bcc


@<TRIPOS>ATOM
      1 C1           0.7340    10.4480    22.5250 c        301 70Z       0.678700
      2 N2           0.1030     9.2610    22.3220 n        301 70Z      -0.377000
      3 O3           1.3940    10.9680    21.6780 o        301 70Z      -0.620100
      4 C4           0.6590    11.0820    23.8540 ca       301 70Z      -0.188600
      5 C5          -0.5550    11.3760    24.4520 ca       301 70Z      -0.014000
      6 C6           1.8170    11.9250    25.7920 ca       301 70Z      -0.136000
      7 C7           1.8550    11.3710    24.5390 ca       301 70Z       0.157100
      8 O8           3.0430    11.0980    23.9880 oh       301 70Z      -0.511100
      9 C9           0.6150    12.2210    26.4010 ca       301 70Z      -0.048000
     10 C10         -0.5650    11.9350    25.7150 ca       301 70Z      -0.129000
     11 C11         -1.6010    12.3670    26.6500 cc       301 70Z      -0.160300
     12 N12         -0.9960    12.8330    27.7170 na       301 70Z       0.098800
     13 N13          0.2630    12.7560    27.6030 nc       301 70Z      -0.260400
     14 C14         -3.0470    12.3160    26.3450 c        301 70Z       0.696300
     15 O15         -3.6510    11.3710    26.6990 o        301 70Z      -0.606100
     16 C16         -0.6590     8.6120    23.3010 ca       301 70Z       0.001600
     17 C17         -2.0070     8.4130    23.0730 ca       301 70Z      -0.111500
     18 C18         -2.2720     7.3030    25.1930 ca       301 70Z       0.141600
     19 C19         -0.9130     7.5010    25.4190 ca       301 70Z      -0.160000
     20 C20         -2.8000     7.7740    23.9950 ca       301 70Z      -0.160000
     21 C21         -0.1210     8.1360    24.4830 ca       301 70Z      -0.111500
     22 C22          0.1890     8.6140    21.0350 c3       301 70Z       0.080300
     23 N23         -3.1090     6.6740    26.1480 nh       301 70Z      -0.632000
     24 N24         -3.6040    13.3640    25.6620 n        301 70Z      -0.459800
     25 C25         -2.5050     6.1620    27.3700 c3       301 70Z       0.150300
     26 C26         -3.5590     5.7510    28.4060 c3       301 70Z       0.123400
     27 O27         -4.5660     5.0020    27.7780 os       301 70Z      -0.412600
     28 C28         -5.2640     5.7220    26.7930 c3       301 70Z       0.123400
     29 C29         -4.3020     6.0120    25.6520 c3       301 70Z       0.150300
     30 C30         -5.0190    13.4380    25.3480 c3       301 70Z       0.088000
     31 C31         -5.3580    13.7200    23.8950 c3       301 70Z      -0.102400
     32 C32         -6.8220    13.2890    23.7460 c3       301 70Z      -0.078400
     33 C33         -2.8210    14.5340    25.2620 c3       301 70Z       0.074300
     34 C34         -7.4390    13.9460    22.5270 c3       301 70Z      -0.092100
     35 H01         -1.4910    11.1690    23.9330 ha       301 70Z       0.151000
     36 H02          2.7500    12.1350    26.3150 ha       301 70Z       0.169000
     37 H03          3.2840    11.8020    23.3810 ho       301 70Z       0.450000
     38 H04         -1.4730    13.2050    28.5260 hn       301 70Z       0.341700
     39 H05         -2.4500     8.7700    22.1430 ha       301 70Z       0.142000
     40 H06         -0.4670     7.1490    26.3490 ha       301 70Z       0.140000
     41 H07         -3.8600     7.6340    23.7850 ha       301 70Z       0.140000
     42 H08          0.9440     8.2640    24.6780 ha       301 70Z       0.142000
     43 H09          1.2300     8.5800    20.7150 h1       301 70Z       0.050367
     44 H10         -0.2000     7.5990    21.1110 h1       301 70Z       0.050367
     45 H11         -0.3960     9.1740    20.3060 h1       301 70Z       0.050367
     46 H12         -1.9000     6.9580    27.8040 h1       301 70Z       0.048200
     47 H13         -1.8950     5.2930    27.1240 h1       301 70Z       0.048200
     48 H14         -3.9960     6.6440    28.8530 h1       301 70Z       0.057700
     49 H15         -3.0890     5.1490    29.1840 h1       301 70Z       0.057700
     50 H16         -5.6500     6.6530    27.2080 h1       301 70Z       0.057700
     51 H17         -6.1040     5.1310    26.4280 h1       301 70Z       0.057700
     52 H18         -4.0140     5.0700    25.1860 h1       301 70Z       0.048200
     53 H19         -4.7930     6.6560    24.9230 h1       301 70Z       0.048200
     54 H20         -5.4040    14.2870    25.9120 h1       301 70Z       0.064700
     55 H21         -5.4730    12.4850    25.6190 h1       301 70Z       0.064700
     56 H22         -4.7000    13.1890    23.2080 hc       301 70Z       0.048700
     57 H23         -5.2440    14.7810    23.6720 hc       301 70Z       0.048700
     58 H24         -7.3750    13.5960    24.6340 hc       301 70Z       0.042200
     59 H25         -6.8700    12.2060    23.6350 hc       301 70Z       0.042200
     60 H26         -1.8590    14.2090    24.8670 h1       301 70Z       0.047033
     61 H27         -3.3600    15.0870    24.4930 h1       301 70Z       0.047033
     62 H28         -2.6590    15.1770    26.1270 h1       301 70Z       0.047033
     63 H29         -8.3380    14.4880    22.8230 hc       301 70Z       0.034367
     64 H30         -6.7240    14.6420    22.0880 hc       301 70Z       0.034367
     65 H31         -7.7000    13.1820    21.7950 hc       301 70Z       0.034367
@<TRIPOS>BOND
     1     1     2 1   
     2     1     3 2   
     3     1     4 1   
     4     2    16 1   
     5     2    22 1   
     6     4     5 ar  
     7     4     7 ar  
     8     5    10 ar  
     9     5    35 1   
    10     6     7 ar  
    11     6     9 ar  
    12     6    36 1   
    13     7     8 1   
    14     8    37 1   
    15     9    10 ar  
    16     9    13 2   
    17    10    11 2   
    18    11    12 1   
    19    11    14 1   
    20    12    13 1   
    21    12    38 1   
    22    14    15 2   
    23    14    24 1   
    24    16    17 ar  
    25    16    21 ar  
    26    17    20 ar  
    27    17    39 1   
    28    18    19 ar  
    29    18    20 ar  
    30    18    23 1   
    31    19    21 ar  
    32    19    40 1   
    33    20    41 1   
    34    21    42 1   
    35    22    43 1   
    36    22    44 1   
    37    22    45 1   
    38    23    25 1   
    39    23    29 1   
    40    24    30 1   
    41    24    33 1   
    42    25    26 1   
    43    25    46 1   
    44    25    47 1   
    45    26    27 1   
    46    26    48 1   
    47    26    49 1   
    48    27    28 1   
    49    28    29 1   
    50    28    50 1   
    51    28    51 1   
    52    29    52 1   
    53    29    53 1   
    54    30    31 1   
    55    30    54 1   
    56    30    55 1   
    57    31    32 1   
    58    31    56 1   
    59    31    57 1   
    60    32    34 1   
    61    32    58 1   
    62    32    59 1   
    63    33    60 1   
    64    33    61 1   
    65    33    62 1   
    66    34    63 1   
    67    34    64 1   
    68    34    65 1   
@<TRIPOS>SUBSTRUCTURE
     1 70Z         1 TEMP              0 ****  ****    0 ROOT
