@<TRIPOS>MOLECULE
017
   75    78     1     0     0
SMALL
bcc


@<TRIPOS>ATOM
      1 N1          14.6300    35.1260    18.1870 nh       101 017      -0.850200
      2 C2          15.5770    34.5670    17.3670 ca       101 017       0.240600
      3 C3          16.6270    35.2950    16.7880 ca       101 017      -0.238000
      4 C4          17.5370    34.6370    15.9270 ca       101 017       0.032000
      5 C5          17.3770    33.2700    15.6730 ca       101 017      -0.457500
      6 C6          16.3320    32.5850    16.2880 ca       101 017       0.032000
      7 C7          15.4400    33.2330    17.1170 ca       101 017      -0.238000
      8 S8          18.4040    32.3690    14.7710 sy       101 017       1.519200
      9 O9          17.6230    31.2790    14.2240 o        101 017      -0.657800
     10 O10         19.0850    33.1860    13.8100 o        101 017      -0.657800
     11 N11         19.4700    31.7610    15.7660 n3       101 017      -0.797500
     12 C12         20.3960    32.6890    16.4340 c3       101 017       0.227800
     13 C13         21.8920    32.3580    16.4680 c3       101 017      -0.077700
     14 C14         22.5110    32.4160    15.0790 c3       101 017      -0.101100
     15 C15         22.5660    33.3870    17.3990 c3       101 017      -0.101100
     16 C16         19.1890    30.4480    16.3600 c3       101 017       0.204800
     17 C17         20.1430    29.3560    15.8870 c3       101 017       0.083100
     18 O18         20.0620    28.2310    16.7870 oh       101 017      -0.602800
     19 C19         19.7880    28.8880    14.4780 c3       101 017       0.109700
     20 N20         20.8470    28.0410    13.9700 n        101 017      -0.514900
     21 C21         21.7020    28.3730    13.0240 c        101 017       0.733100
     22 O22         21.8100    29.4390    12.4680 o        101 017      -0.587000
     23 O23         22.6080    27.3020    12.7250 os       101 017      -0.439900
     24 C24         23.4110    27.4200    11.5510 c3       101 017       0.131100
     25 C25         24.7450    26.7990    11.9710 c3       101 017       0.121400
     26 O26         24.4930    25.3940    11.8820 os       101 017      -0.420600
     27 C27         23.5210    25.1490    10.8610 c3       101 017       0.321900
     28 O28         22.4910    24.3120    11.3990 os       101 017      -0.421600
     29 C29         21.2260    24.9900    11.3900 c3       101 017       0.125400
     30 C30         21.3960    26.2040    10.4710 c3       101 017      -0.104400
     31 C31         22.8990    26.4780    10.4750 c3       101 017      -0.130700
     32 C32         18.4780    28.0900    14.3790 c3       101 017      -0.030100
     33 C33         18.1330    26.3730    12.5760 ca       101 017      -0.125500
     34 C34         17.9270    25.9840    11.2420 ca       101 017      -0.132000
     35 C35         17.6790    26.9490    10.2740 ca       101 017      -0.132000
     36 C36         17.7250    28.2960    10.6420 ca       101 017      -0.132000
     37 C37         17.9550    28.6840    11.9660 ca       101 017      -0.125500
     38 C38         18.1710    27.7150    12.9470 ca       101 017      -0.087300
     39 H01         13.8920    34.5530    18.5700 hn       101 017       0.421800
     40 H02         14.6710    36.1110    18.4070 hn       101 017       0.421800
     41 H03         16.7410    36.3580    16.9990 ha       101 017       0.140000
     42 H04         18.3550    35.1900    15.4660 ha       101 017       0.149000
     43 H05         16.2170    31.5160    16.1110 ha       101 017       0.149000
     44 H06         14.6220    32.6770    17.5740 ha       101 017       0.140000
     45 H07         20.0970    32.6430    17.4810 h1       101 017       0.045200
     46 H08         20.2940    33.6540    15.9370 h1       101 017       0.045200
     47 H09         22.0380    31.3420    16.8340 hc       101 017       0.037700
     48 H10         23.5270    32.0240    15.1180 hc       101 017       0.043700
     49 H11         21.9170    31.8150    14.3900 hc       101 017       0.043700
     50 H12         22.5340    33.4500    14.7340 hc       101 017       0.043700
     51 H13         23.4810    33.7520    16.9340 hc       101 017       0.043700
     52 H14         21.8870    34.2230    17.5700 hc       101 017       0.043700
     53 H15         22.8070    32.9140    18.3510 hc       101 017       0.043700
     54 H16         18.1860    30.1590    16.0450 h1       101 017       0.054200
     55 H17         19.2690    30.5330    17.4440 h1       101 017       0.054200
     56 H18         21.1530    29.7650    15.8750 h1       101 017       0.066700
     57 H19         20.4710    28.4610    17.6250 ho       101 017       0.403000
     58 H20         19.6600    29.8010    13.8970 h1       101 017       0.118700
     59 H21         20.9380    27.1200    14.3740 hn       101 017       0.325500
     60 H22         23.4370    28.4480    11.1900 h1       101 017       0.093700
     61 H23         25.0690    27.1130    12.9630 h1       101 017       0.062700
     62 H24         25.5460    27.0970    11.2950 h1       101 017       0.062700
     63 H25         23.9860    24.6710     9.9990 h2       101 017       0.099700
     64 H26         20.9310    25.2920    12.3950 h1       101 017       0.050200
     65 H27         20.4470    24.3310    11.0070 h1       101 017       0.050200
     66 H28         20.8170    27.0640    10.8080 hc       101 017       0.067200
     67 H29         21.0470    25.9770     9.4630 hc       101 017       0.067200
     68 H30         23.1380    26.9170     9.5060 hc       101 017       0.086700
     69 H31         17.6660    28.7140    14.7530 hc       101 017       0.060700
     70 H32         18.5690    27.1810    14.9730 hc       101 017       0.060700
     71 H33         18.2660    25.6060    13.3390 ha       101 017       0.147500
     72 H34         17.9620    24.9300    10.9680 ha       101 017       0.130500
     73 H35         17.4530    26.6610     9.2470 ha       101 017       0.128000
     74 H36         17.5780    29.0620     9.8800 ha       101 017       0.130500
     75 H37         17.9660    29.7410    12.2310 ha       101 017       0.147500
@<TRIPOS>BOND
     1     1     2 1   
     2     1    39 1   
     3     1    40 1   
     4     2     3 ar  
     5     2     7 ar  
     6     3     4 ar  
     7     3    41 1   
     8     4     5 ar  
     9     4    42 1   
    10     5     6 ar  
    11     5     8 1   
    12     6     7 ar  
    13     6    43 1   
    14     7    44 1   
    15     8     9 2   
    16     8    10 2   
    17     8    11 1   
    18    11    12 1   
    19    11    16 1   
    20    12    13 1   
    21    12    45 1   
    22    12    46 1   
    23    13    14 1   
    24    13    15 1   
    25    13    47 1   
    26    14    48 1   
    27    14    49 1   
    28    14    50 1   
    29    15    51 1   
    30    15    52 1   
    31    15    53 1   
    32    16    17 1   
    33    16    54 1   
    34    16    55 1   
    35    17    18 1   
    36    17    19 1   
    37    17    56 1   
    38    18    57 1   
    39    19    20 1   
    40    19    32 1   
    41    19    58 1   
    42    20    21 1   
    43    20    59 1   
    44    21    22 2   
    45    21    23 1   
    46    23    24 1   
    47    24    25 1   
    48    24    31 1   
    49    24    60 1   
    50    25    26 1   
    51    25    61 1   
    52    25    62 1   
    53    26    27 1   
    54    27    28 1   
    55    27    31 1   
    56    27    63 1   
    57    28    29 1   
    58    29    30 1   
    59    29    64 1   
    60    29    65 1   
    61    30    31 1   
    62    30    66 1   
    63    30    67 1   
    64    31    68 1   
    65    32    38 1   
    66    32    69 1   
    67    32    70 1   
    68    33    34 ar  
    69    33    38 ar  
    70    33    71 1   
    71    34    35 ar  
    72    34    72 1   
    73    35    36 ar  
    74    35    73 1   
    75    36    37 ar  
    76    36    74 1   
    77    37    38 ar  
    78    37    75 1   
@<TRIPOS>SUBSTRUCTURE
     1 017         1 TEMP              0 ****  ****    0 ROOT
