@<TRIPOS>MOLECULE
6GW
   51    54     1     0     0
SMALL
bcc


@<TRIPOS>ATOM
      1 H01        -32.2270    -7.5090    24.6950 ha         0 6GW       0.134000
      2 H11        -34.6560   -15.3020    23.6070 h1         0 6GW       0.047367
      3 H15        -29.8680   -11.7840    25.7140 ho         0 6GW       0.434000
      4 H16        -33.3260   -13.8790    22.0060 ho         0 6GW       0.439000
      5 H14        -34.7210   -10.9410    25.4330 ha         0 6GW       0.162000
      6 H17        -31.6740    -9.1370    29.5170 hn         0 6GW       0.344500
      7 H05        -35.6130    -9.7460    27.2360 hc         0 6GW       0.057367
      8 H19        -33.5230    -6.3910    22.9040 ha         0 6GW       0.139000
      9 H06        -36.2500    -8.1670    27.7590 hc         0 6GW       0.057367
     10 H20        -39.4030   -13.6360    28.0890 h4         0 6GW       0.172000
     11 H04        -37.1360    -9.1300    26.5520 hc         0 6GW       0.057367
     12 H03        -36.0060    -6.3850    22.9820 ha         0 6GW       0.138000
     13 H18        -37.1990    -7.5540    24.8210 ha         0 6GW       0.140000
     14 H02        -30.6120   -12.3610    22.9950 ha         0 6GW       0.177000
     15 H09        -34.0110   -14.0420    24.6850 h1         0 6GW       0.047367
     16 H08        -37.7180   -13.1260    22.9540 h1         0 6GW       0.073700
     17 H07        -37.2500   -14.8640    22.9980 h1         0 6GW       0.073700
     18 H10        -35.4320   -14.9930    25.1790 h1         0 6GW       0.047367
     19 H13        -38.5260   -16.1310    24.6940 ha         0 6GW       0.150000
     20 H12        -39.5840   -15.9530    27.0190 ha         0 6GW       0.154000
     21 C          -33.3160    -7.5230    24.7270 ca         0 6GW      -0.131000
     22 C1         -32.7820   -12.3650    23.0140 ca         0 6GW       0.208100
     23 C2         -31.5120   -12.0450    23.5220 ca         0 6GW      -0.206000
     24 C3         -33.9430   -11.9340    23.6860 ca         0 6GW      -0.254600
     25 C4         -32.5030   -10.0530    26.6170 cc         0 6GW       0.391500
     26 C5         -32.8810    -8.3560    27.9790 c          0 6GW       0.728500
     27 C6         -33.9710    -8.1790    25.7790 ca         0 6GW       0.020600
     28 C7         -35.4390    -6.8920    23.7630 ca         0 6GW      -0.113000
     29 C8         -36.1470    -8.8510    26.9160 c3         0 6GW      -0.065800
     30 C9         -35.3290   -12.3140    23.3230 c          0 6GW       0.660700
     31 C10        -37.2190   -13.9100    23.5240 c3         0 6GW       0.158300
     32 C11        -34.9180   -14.5340    24.3340 c3         0 6GW       0.065300
     33 C12        -39.0900   -15.1110    26.5350 cc         0 6GW      -0.158000
     34 C13        -38.5120   -15.2110    25.2780 cc         0 6GW      -0.149000
     35 C14        -31.4150   -11.3170    24.7110 ca         0 6GW       0.208100
     36 C15        -32.5720   -10.9120    25.4060 ca         0 6GW      -0.236900
     37 C16        -33.8230   -11.2360    24.8900 ca         0 6GW       0.019000
     38 N          -31.8170   -10.2850    27.7080 nd         0 6GW      -0.496300
     39 N1         -33.1720    -8.8380    26.7560 n          0 6GW      -0.272500
     40 O          -30.2020   -11.0240    25.2310 oh         0 6GW      -0.486100
     41 O1         -32.8970   -13.0350    21.8490 oh         0 6GW      -0.487100
     42 N2         -32.0550    -9.2300    28.5860 n          0 6GW      -0.268900
     43 O2         -33.3010    -7.3140    28.4450 o          0 6GW      -0.581500
     44 C17        -35.3790    -8.1760    25.8120 ca         0 6GW      -0.032300
     45 C18        -36.1090    -7.5410    24.7990 ca         0 6GW      -0.126000
     46 N3         -35.8020   -13.5390    23.7020 n          0 6GW      -0.459800
     47 O3         -36.0620   -11.4870    22.8190 o          0 6GW      -0.579100
     48 C19        -37.9350   -14.0850    24.8410 cd         0 6GW      -0.168400
     49 C20        -34.0430    -6.8890    23.7220 ca         0 6GW      -0.126000
     50 S          -38.1140   -12.8170    26.0430 ss         0 6GW       0.072200
     51 C21        -38.9970   -13.9030    27.1130 cd         0 6GW      -0.178100
@<TRIPOS>BOND
     1     1    21 1   
     2     2    32 1   
     3     3    40 1   
     4     4    41 1   
     5     5    37 1   
     6     6    42 1   
     7     7    29 1   
     8     8    49 1   
     9     9    29 1   
    10    10    51 1   
    11    11    29 1   
    12    12    28 1   
    13    13    45 1   
    14    14    23 1   
    15    15    32 1   
    16    16    31 1   
    17    17    31 1   
    18    18    32 1   
    19    19    34 1   
    20    20    33 1   
    21    21    27 ar  
    22    21    49 ar  
    23    22    23 ar  
    24    22    24 ar  
    25    22    41 1   
    26    23    35 ar  
    27    24    30 1   
    28    24    37 ar  
    29    25    36 1   
    30    25    38 2   
    31    25    39 1   
    32    26    39 1   
    33    26    42 1   
    34    26    43 2   
    35    27    39 1   
    36    27    44 ar  
    37    28    45 ar  
    38    28    49 ar  
    39    29    44 1   
    40    30    46 1   
    41    30    47 2   
    42    31    46 1   
    43    31    48 1   
    44    32    46 1   
    45    33    34 1   
    46    33    51 2   
    47    34    48 2   
    48    35    36 ar  
    49    35    40 1   
    50    36    37 ar  
    51    38    42 1   
    52    44    45 ar  
    53    48    50 1   
    54    50    51 1   
@<TRIPOS>SUBSTRUCTURE
     1 6GW         1 TEMP              0 ****  ****    0 ROOT
