@<TRIPOS>MOLECULE
6GW
   50    53     1     0     0
SMALL
bcc


@<TRIPOS>ATOM
      1 C1         -33.3160    -7.5230    24.7270 ca       301 6GW      -0.155000
      2 C2         -32.7820   -12.3650    23.0140 ca       301 6GW       0.184100
      3 C3         -31.5120   -12.0450    23.5220 ca       301 6GW      -0.219000
      4 C4         -31.4150   -11.3170    24.7110 ca       301 6GW       0.186100
      5 C5         -32.5720   -10.9120    25.4060 ca       301 6GW      -0.111900
      6 C6         -33.8230   -11.2360    24.8900 ca       301 6GW      -0.048000
      7 C7         -33.9430   -11.9340    23.6860 ca       301 6GW      -0.261600
      8 C8         -32.5030   -10.0530    26.6170 cc       301 6GW       0.027200
      9 N9         -31.8170   -10.2850    27.7080 nc       301 6GW      -0.256300
     10 N10        -33.1720    -8.8380    26.7560 n        301 6GW      -0.284600
     11 O11        -30.2020   -11.0240    25.2310 oh       301 6GW      -0.509100
     12 O12        -32.8970   -13.0350    21.8490 oh       301 6GW      -0.520100
     13 N13        -32.0550    -9.2300    28.5860 nd       301 6GW      -0.413400
     14 C14        -32.8810    -8.3560    27.9790 c        301 6GW       0.735900
     15 O15        -33.3010    -7.3140    28.4450 o        301 6GW      -0.688500
     16 C16        -33.9710    -8.1790    25.7790 ca       301 6GW       0.085600
     17 C17        -35.3790    -8.1760    25.8120 ca       301 6GW      -0.071300
     18 C18        -36.1090    -7.5410    24.7990 ca       301 6GW      -0.135000
     19 C19        -35.4390    -6.8920    23.7630 ca       301 6GW      -0.162000
     20 C20        -36.1470    -8.8510    26.9160 c3       301 6GW      -0.057800
     21 C21        -35.3290   -12.3140    23.3230 c        301 6GW       0.696700
     22 N22        -35.8020   -13.5390    23.7020 n        301 6GW      -0.474800
     23 O23        -36.0620   -11.4870    22.8190 o        301 6GW      -0.657100
     24 C24        -37.2190   -13.9100    23.5240 c3       301 6GW       0.166300
     25 C25        -37.9350   -14.0850    24.8410 cc       301 6GW      -0.149400
     26 C26        -34.0430    -6.8890    23.7220 ca       301 6GW      -0.130000
     27 C27        -34.9180   -14.5340    24.3340 c3       301 6GW       0.078300
     28 S28        -38.1140   -12.8170    26.0430 ss       301 6GW       0.106200
     29 C29        -38.9970   -13.9030    27.1130 cc       301 6GW      -0.196100
     30 C30        -39.0900   -15.1110    26.5350 cd       301 6GW      -0.165000
     31 C31        -38.5120   -15.2110    25.2780 cd       301 6GW      -0.168000
     32 H01        -32.2270    -7.5090    24.6950 ha       301 6GW       0.140000
     33 H02        -30.6120   -12.3610    22.9950 ha       301 6GW       0.155000
     34 H03        -34.7210   -10.9410    25.4330 ha       301 6GW       0.152000
     35 H04        -29.8680   -11.7840    25.7140 ho       301 6GW       0.457000
     36 H05        -33.3260   -13.8790    22.0060 ho       301 6GW       0.444000
     37 H06        -37.1990    -7.5540    24.8210 ha       301 6GW       0.114000
     38 H07        -36.0060    -6.3850    22.9820 ha       301 6GW       0.113000
     39 H08        -37.1360    -9.1300    26.5520 hc       301 6GW       0.049033
     40 H09        -35.6130    -9.7460    27.2360 hc       301 6GW       0.049033
     41 H10        -36.2500    -8.1670    27.7590 hc       301 6GW       0.049033
     42 H11        -37.2500   -14.8640    22.9980 h1       301 6GW       0.068200
     43 H12        -37.7180   -13.1260    22.9540 h1       301 6GW       0.068200
     44 H13        -33.5230    -6.3910    22.9040 ha       301 6GW       0.117000
     45 H14        -34.0110   -14.0420    24.6850 h1       301 6GW       0.047033
     46 H15        -35.4320   -14.9930    25.1790 h1       301 6GW       0.047033
     47 H16        -34.6560   -15.3020    23.6070 h1       301 6GW       0.047033
     48 H17        -39.4030   -13.6360    28.0890 h4       301 6GW       0.167000
     49 H18        -39.5840   -15.9530    27.0190 ha       301 6GW       0.143000
     50 H19        -38.5260   -16.1310    24.6940 ha       301 6GW       0.144000
@<TRIPOS>BOND
     1     1    16 ar  
     2     1    26 ar  
     3     1    32 1   
     4     2     3 ar  
     5     2     7 ar  
     6     2    12 1   
     7     3     4 ar  
     8     3    33 1   
     9     4     5 ar  
    10     4    11 1   
    11     5     6 ar  
    12     5     8 1   
    13     6     7 ar  
    14     6    34 1   
    15     7    21 1   
    16     8     9 1   
    17     8    10 2   
    18     9    13 2   
    19    10    14 1   
    20    10    16 1   
    21    11    35 1   
    22    12    36 1   
    23    13    14 1   
    24    14    15 2   
    25    16    17 ar  
    26    17    18 ar  
    27    17    20 1   
    28    18    19 ar  
    29    18    37 1   
    30    19    26 ar  
    31    19    38 1   
    32    20    39 1   
    33    20    40 1   
    34    20    41 1   
    35    21    22 1   
    36    21    23 2   
    37    22    24 1   
    38    22    27 1   
    39    24    25 1   
    40    24    42 1   
    41    24    43 1   
    42    25    28 1   
    43    25    31 2   
    44    26    44 1   
    45    27    45 1   
    46    27    46 1   
    47    27    47 1   
    48    28    29 1   
    49    29    30 2   
    50    29    48 1   
    51    30    31 1   
    52    30    49 1   
    53    31    50 1   
@<TRIPOS>SUBSTRUCTURE
     1 6GW         1 TEMP              0 ****  ****    0 ROOT
