@<TRIPOS>MOLECULE
70M
   55    58     1     0     0
SMALL
bcc


@<TRIPOS>ATOM
      1 H20         -2.8610    33.3740    26.0000 ha         0 70M       0.142000
      2 H24          9.9910    30.3090    20.9820 ha         0 70M       0.141000
      3 H01          1.6090    32.4680    28.2260 h4         0 70M       0.169000
      4 H25         12.6130    31.5570    25.0700 ha         0 70M       0.143000
      5 H03          3.3450    34.6670    25.9540 hc         0 70M       0.047700
      6 H08          3.7740    31.2330    22.6120 h1         0 70M       0.033700
      7 H06          2.4980    31.1040    24.7680 hc         0 70M       0.042700
      8 H05          2.8950    33.2930    23.8500 hc         0 70M       0.051200
      9 H12          7.7720    32.4630    22.3300 h1         0 70M       0.046950
     10 H04          4.5860    33.2860    24.4290 hc         0 70M       0.051200
     11 H10          5.9630    30.5040    25.5010 h1         0 70M       0.041450
     12 H09          4.1030    29.7370    23.5390 h1         0 70M       0.033700
     13 H02          3.6570    33.1000    26.7830 hc         0 70M       0.047700
     14 H11          6.3670    29.2930    24.2650 h1         0 70M       0.041450
     15 H15          7.9210    31.8640    24.8320 h1         0 70M       0.046950
     16 H14          8.4360    30.2190    25.2610 h1         0 70M       0.046950
     17 H13          8.1490    31.1870    21.1510 h1         0 70M       0.046950
     18 H16         10.1460    31.3230    25.2170 ha         0 70M       0.141000
     19 H19         -0.9500    32.5050    27.9530 hn         0 70M       0.302700
     20 H18          1.3220    34.6830    23.5290 ha         0 70M       0.152000
     21 H17         12.4620    30.5490    20.8420 ha         0 70M       0.143000
     22 H07          4.0520    31.1210    25.6430 hc         0 70M       0.042700
     23 H23          5.6710    31.5370    21.4210 h1         0 70M       0.041450
     24 H22          6.1750    29.8910    21.8700 h1         0 70M       0.041450
     25 H21         -3.5910    33.6500    23.2720 ho         0 70M       0.423000
     26 C            0.5100    33.7950    25.3510 ca         0 70M      -0.132800
     27 C1          -0.6870    33.4170    26.0550 ca         0 70M       0.013800
     28 C2           1.6270    33.4200    26.2310 cc         0 70M      -0.109400
     29 C3           1.0540    32.8550    27.3720 cd         0 70M      -0.117100
     30 C4           3.1190    33.6010    25.9780 c3         0 70M      -0.015200
     31 C5          -0.8540    34.6200    23.4870 ca         0 70M      -0.075000
     32 C6          -2.0390    34.2480    24.2000 ca         0 70M       0.184100
     33 C7           3.5660    32.9680    24.6450 c3         0 70M      -0.071400
     34 C8          -0.9630    35.2150    22.1870 cg         0 70M       0.253800
     35 C9           3.5350    31.4380    24.7380 c3         0 70M      -0.076400
     36 C10          4.2280    30.8200    23.5120 c3         0 70M       0.170800
     37 C11          6.4120    30.3520    24.5190 c3         0 70M       0.163300
     38 C12          7.7130    31.3930    22.1280 c3         0 70M       0.189300
     39 C13          7.8740    30.8140    24.5420 c3         0 70M       0.189300
     40 C14         10.6490    31.1530    24.2650 ca         0 70M      -0.185500
     41 C15         11.9530    30.7140    21.7920 ca         0 70M      -0.061000
     42 C16          0.4180    34.3960    24.0660 ca         0 70M      -0.006000
     43 N           -0.3110    32.8600    27.2560 na         0 70M      -0.193400
     44 C17         -1.9520    33.6540    25.4670 ca         0 70M      -0.252000
     45 O           -3.2550    34.4690    23.6440 oh         0 70M      -0.484100
     46 N1          -1.0640    35.6660    21.1500 n1         0 70M      -0.373800
     47 N2           5.6700    31.1410    23.5010 n3         0 70M      -0.729600
     48 C18          6.2370    30.9450    22.1400 c3         0 70M       0.163300
     49 N3           8.4620    30.6430    23.1780 nh         0 70M      -0.641000
     50 C19          9.8800    30.7960    23.1100 ca         0 70M       0.175600
     51 C20         10.5600    30.5800    21.8710 ca         0 70M      -0.185500
     52 C21         12.0390    31.2850    24.1840 ca         0 70M      -0.061000
     53 C22         12.7040    31.0650    22.9480 ca         0 70M      -0.060000
     54 C23         14.1280    31.1880    22.8760 cg         0 70M       0.241800
     55 N4          15.2590    31.2660    22.8340 n1         0 70M      -0.375800
@<TRIPOS>BOND
     1     1    44 1   
     2     2    51 1   
     3     3    29 1   
     4     4    52 1   
     5     5    30 1   
     6     6    36 1   
     7     7    35 1   
     8     8    33 1   
     9     9    38 1   
    10    10    33 1   
    11    11    37 1   
    12    12    36 1   
    13    13    30 1   
    14    14    37 1   
    15    15    39 1   
    16    16    39 1   
    17    17    38 1   
    18    18    40 1   
    19    19    43 1   
    20    20    42 1   
    21    21    41 1   
    22    22    35 1   
    23    23    48 1   
    24    24    48 1   
    25    25    45 1   
    26    26    27 ar  
    27    26    28 1   
    28    26    42 ar  
    29    27    43 1   
    30    27    44 ar  
    31    28    29 2   
    32    28    30 1   
    33    29    43 1   
    34    30    33 1   
    35    31    32 ar  
    36    31    34 1   
    37    31    42 ar  
    38    32    44 ar  
    39    32    45 1   
    40    33    35 1   
    41    34    46 3   
    42    35    36 1   
    43    36    47 1   
    44    37    39 1   
    45    37    47 1   
    46    38    48 1   
    47    38    49 1   
    48    39    49 1   
    49    40    50 ar  
    50    40    52 ar  
    51    41    51 ar  
    52    41    53 ar  
    53    47    48 1   
    54    49    50 1   
    55    50    51 ar  
    56    52    53 ar  
    57    53    54 1   
    58    54    55 3   
@<TRIPOS>SUBSTRUCTURE
     1 70M         1 TEMP              0 ****  ****    0 ROOT
