@<TRIPOS>MOLECULE
70M
   55    58     1     0     0
SMALL
bcc


@<TRIPOS>ATOM
      1 C1           0.5100    33.7950    25.3510 ca       301 70M      -0.132800
      2 C2          -0.6870    33.4170    26.0550 ca       301 70M       0.013800
      3 C3           1.6270    33.4200    26.2310 cc       301 70M      -0.109400
      4 C4           0.4180    34.3960    24.0660 ca       301 70M      -0.006000
      5 N5          -0.3110    32.8600    27.2560 na       301 70M      -0.193400
      6 C6          -1.9520    33.6540    25.4670 ca       301 70M      -0.252000
      7 C7           1.0540    32.8550    27.3720 cd       301 70M      -0.117100
      8 C8           3.1190    33.6010    25.9780 c3       301 70M      -0.015200
      9 C9          -0.8540    34.6200    23.4870 ca       301 70M      -0.075000
     10 C10         -2.0390    34.2480    24.2000 ca       301 70M       0.184100
     11 C11          3.5660    32.9680    24.6450 c3       301 70M      -0.071400
     12 C12         -0.9630    35.2150    22.1870 cg       301 70M       0.253800
     13 O13         -3.2550    34.4690    23.6440 oh       301 70M      -0.484100
     14 C14          3.5350    31.4380    24.7380 c3       301 70M      -0.076400
     15 N15         -1.0640    35.6660    21.1500 n1       301 70M      -0.373800
     16 C16          4.2280    30.8200    23.5120 c3       301 70M       0.170800
     17 N17          5.6700    31.1410    23.5010 n3       301 70M      -0.729600
     18 C18          6.2370    30.9450    22.1400 c3       301 70M       0.163300
     19 C19          6.4120    30.3520    24.5190 c3       301 70M       0.163300
     20 C20          7.7130    31.3930    22.1280 c3       301 70M       0.189300
     21 C21          7.8740    30.8140    24.5420 c3       301 70M       0.189300
     22 N22          8.4620    30.6430    23.1780 nh       301 70M      -0.641000
     23 C23          9.8800    30.7960    23.1100 ca       301 70M       0.175600
     24 C24         10.6490    31.1530    24.2650 ca       301 70M      -0.185500
     25 C25         10.5600    30.5800    21.8710 ca       301 70M      -0.185500
     26 C26         12.0390    31.2850    24.1840 ca       301 70M      -0.061000
     27 C27         11.9530    30.7140    21.7920 ca       301 70M      -0.061000
     28 C28         12.7040    31.0650    22.9480 ca       301 70M      -0.060000
     29 C29         14.1280    31.1880    22.8760 cg       301 70M       0.241800
     30 N30         15.2590    31.2660    22.8340 n1       301 70M      -0.375800
     31 H01          1.3220    34.6830    23.5290 ha       301 70M       0.152000
     32 H02         -0.9500    32.5050    27.9530 hn       301 70M       0.302700
     33 H03         -2.8610    33.3740    26.0000 ha       301 70M       0.142000
     34 H04          1.6090    32.4680    28.2260 h4       301 70M       0.169000
     35 H05          3.6570    33.1000    26.7830 hc       301 70M       0.047700
     36 H06          3.3450    34.6670    25.9540 hc       301 70M       0.047700
     37 H07          4.5860    33.2860    24.4290 hc       301 70M       0.051200
     38 H08          2.8950    33.2930    23.8500 hc       301 70M       0.051200
     39 H09         -3.5910    33.6500    23.2720 ho       301 70M       0.423000
     40 H10          2.4980    31.1040    24.7680 hc       301 70M       0.042700
     41 H11          4.0520    31.1210    25.6430 hc       301 70M       0.042700
     42 H12          3.7740    31.2330    22.6120 h1       301 70M       0.033700
     43 H13          4.1030    29.7370    23.5390 h1       301 70M       0.033700
     44 H14          5.6720    31.5390    21.4220 h1       301 70M       0.041450
     45 H15          6.1740    29.8910    21.8680 h1       301 70M       0.041450
     46 H16          6.3650    29.2920    24.2680 h1       301 70M       0.041450
     47 H17          5.9640    30.5070    25.5000 h1       301 70M       0.041450
     48 H18          7.7720    32.4630    22.3300 h1       301 70M       0.046950
     49 H19          8.1490    31.1870    21.1510 h1       301 70M       0.046950
     50 H20          8.4360    30.2190    25.2610 h1       301 70M       0.046950
     51 H21          7.9210    31.8640    24.8320 h1       301 70M       0.046950
     52 H22         10.1460    31.3230    25.2170 ha       301 70M       0.141000
     53 H23          9.9910    30.3090    20.9820 ha       301 70M       0.141000
     54 H24         12.6130    31.5570    25.0700 ha       301 70M       0.143000
     55 H25         12.4620    30.5490    20.8420 ha       301 70M       0.143000
@<TRIPOS>BOND
     1     1     2 ar  
     2     1     3 1   
     3     1     4 ar  
     4     2     5 1   
     5     2     6 ar  
     6     3     7 2   
     7     3     8 1   
     8     4     9 ar  
     9     4    31 1   
    10     5     7 1   
    11     5    32 1   
    12     6    10 ar  
    13     6    33 1   
    14     7    34 1   
    15     8    11 1   
    16     8    35 1   
    17     8    36 1   
    18     9    10 ar  
    19     9    12 1   
    20    10    13 1   
    21    11    14 1   
    22    11    37 1   
    23    11    38 1   
    24    12    15 3   
    25    13    39 1   
    26    14    16 1   
    27    14    40 1   
    28    14    41 1   
    29    16    17 1   
    30    16    42 1   
    31    16    43 1   
    32    17    18 1   
    33    17    19 1   
    34    18    20 1   
    35    18    44 1   
    36    18    45 1   
    37    19    21 1   
    38    19    46 1   
    39    19    47 1   
    40    20    22 1   
    41    20    48 1   
    42    20    49 1   
    43    21    22 1   
    44    21    50 1   
    45    21    51 1   
    46    22    23 1   
    47    23    24 ar  
    48    23    25 ar  
    49    24    26 ar  
    50    24    52 1   
    51    25    27 ar  
    52    25    53 1   
    53    26    28 ar  
    54    26    54 1   
    55    27    28 ar  
    56    27    55 1   
    57    28    29 1   
    58    29    30 3   
@<TRIPOS>SUBSTRUCTURE
     1 70M         1 TEMP              0 ****  ****    0 ROOT
