@<TRIPOS>MOLECULE
/web/media/ligands/1XKK_ligand.pdb
 40 44 0 0 0
SMALL
GASTEIGER

@<TRIPOS>ATOM
      1 C          22.6040   34.4870   31.1410 C.3     1  UNL1        0.1761
      2 S          24.0360   33.4650   31.3500 S.O2    1  UNL1       -0.0068
      3 O          25.0530   34.2040   32.0670 O.2     1  UNL1       -0.1729
      4 O          24.5430   33.0770   30.0530 O.2     1  UNL1       -0.1729
      5 C          23.5870   31.9800   32.2910 C.3     1  UNL1        0.1696
      6 C          22.0610   31.8360   32.3240 C.3     1  UNL1        0.1145
      7 N          21.5690   32.1840   33.6650 N.3     1  UNL1       -0.2081
      8 C          20.9140   31.0190   34.2650 C.3     1  UNL1        0.1529
      9 C          19.4160   31.2080   34.2230 C.ar    1  UNL1        0.1404
     10 C          18.6740   30.9770   33.1210 C.ar    1  UNL1        0.0376
     11 C          17.4450   31.2370   33.4210 C.ar    1  UNL1        0.0403
     12 C          17.4090   31.6450   34.7310 C.ar    1  UNL1        0.1449
     13 O          18.6550   31.6530   35.3630 O.2     1  UNL1       -0.4563
     14 C          16.1760   32.0580   35.4070 C.ar    1  UNL1        0.0347
     15 C          14.9580   31.9860   34.7350 C.ar    1  UNL1        0.0046
     16 C          13.8070   32.4020   35.3590 C.ar    1  UNL1        0.0193
     17 C          13.8490   32.8900   36.6640 C.ar    1  UNL1        0.0858
     18 N          12.6830   33.3050   37.2760 N.ar    1  UNL1       -0.2239
     19 C          12.7080   33.7900   38.5680 C.ar    1  UNL1        0.2001
     20 N          13.8990   33.8630   39.2600 N.ar    1  UNL1       -0.2072
     21 C          15.0770   33.4520   38.6680 C.ar    1  UNL1        0.1549
     22 N          16.2820   33.5270   39.3660 N.pl3   1  UNL1       -0.1940
     23 C          16.3320   33.8430   40.7350 C.ar    1  UNL1        0.0732
     24 C          17.1180   34.9090   41.1780 C.ar    1  UNL1        0.0197
     25 C          17.1640   35.2150   42.5350 C.ar    1  UNL1        0.0391
     26 C          16.4280   34.4570   43.4380 C.ar    1  UNL1        0.1496
     27 O          16.4460   34.7470   44.8280 O.3     1  UNL1       -0.4698
     28 C          17.0650   36.0020   45.1430 C.3     1  UNL1        0.2321
     29 C          16.0850   37.1810   44.9840 C.ar    1  UNL1        0.0234
     30 C          16.5190   38.4620   45.2460 C.ar    1  UNL1       -0.0005
     31 C          15.6530   39.5270   45.1020 C.ar    1  UNL1        0.0021
     32 C          14.3540   39.3120   44.6930 C.ar    1  UNL1        0.0296
     33 C          13.9160   38.0360   44.4290 C.ar    1  UNL1        0.1399
     34 F          12.6790   37.8370   44.0350 F       1  UNL1       -0.2042
     35 C          14.7720   36.9660   44.5730 C.ar    1  UNL1        0.0289
     36 C          15.6650   33.4150   42.9990 C.ar    1  UNL1        0.0928
     37 CL         14.7840   32.5140   44.1280 Cl      1  UNL1       -0.0790
     38 C          15.6070   33.0980   41.6600 C.ar    1  UNL1        0.0310
     39 C          15.0530   32.9590   37.3490 C.ar    1  UNL1        0.0512
     40 C          16.2200   32.5450   36.7310 C.ar    1  UNL1        0.0074
@<TRIPOS>BOND
     1     1     2    1
     2     2     3    2
     3     2     5    1
     4     4     2    2
     5     5     6    1
     6     6     7    1
     7     7     8    1
     8     9     8    1
     9     9    13   ar
    10    10    11   ar
    11    10     9   ar
    12    11    12   ar
    13    12    13   ar
    14    12    14    1
    15    14    40   ar
    16    15    16   ar
    17    15    14   ar
    18    16    17   ar
    19    17    18   ar
    20    17    39   ar
    21    18    19   ar
    22    19    20   ar
    23    21    20   ar
    24    21    22    1
    25    22    23    1
    26    23    24   ar
    27    23    38   ar
    28    24    25   ar
    29    25    26   ar
    30    26    27    1
    31    27    28    1
    32    29    28    1
    33    29    30   ar
    34    31    30   ar
    35    32    31   ar
    36    33    35   ar
    37    33    32   ar
    38    34    33    1
    39    35    29   ar
    40    36    26   ar
    41    36    37    1
    42    38    36   ar
    43    39    21   ar
    44    40    39   ar
