@<TRIPOS>MOLECULE
XTW
   40    43     1     0     0
SMALL
bcc


@<TRIPOS>ATOM
      1 H13        -22.8680    11.9780   -45.6430 hc         0 XTW       0.072700
      2 H10        -25.5240     9.3250   -39.9550 h1         0 XTW       0.077700
      3 H14        -23.5920    11.9810   -44.2800 hc         0 XTW       0.072700
      4 H15        -26.0220    11.1280   -45.4150 hc         0 XTW       0.072700
      5 H04        -28.0830     5.2800   -43.4860 ha         0 XTW       0.154000
      6 H16        -25.2280    10.8820   -46.7130 hc         0 XTW       0.072700
      7 H03        -29.7690     4.5410   -45.1570 ha         0 XTW       0.142000
      8 H02        -31.1250     2.5280   -44.7190 ha         0 XTW       0.142000
      9 H09        -24.1000     8.3610   -39.5820 h1         0 XTW       0.077700
     10 H01        -30.7570     1.1830   -42.6720 ha         0 XTW       0.151000
     11 H06        -29.3590     6.0800   -39.8490 ho         0 XTW       0.441000
     12 H07        -25.0690     4.0990   -41.1780 ha         0 XTW       0.155000
     13 H05        -27.5570     8.3170   -40.2970 ha         0 XTW       0.153000
     14 H08        -23.8360     6.1970   -40.7950 ha         0 XTW       0.158000
     15 H12        -23.6290     8.9320   -45.4840 hc         0 XTW       0.104700
     16 H11        -25.9750     9.2570   -43.0240 h4         0 XTW       0.189000
     17 Cl         -28.9320     1.5180   -40.3990 cl         0 XTW      -0.067400
     18 C          -29.2330     2.4740   -41.9270 ca         0 XTW       0.001400
     19 C1         -30.1680     2.0840   -42.8440 ca         0 XTW      -0.106000
     20 C2         -30.3680     2.8370   -43.9980 ca         0 XTW      -0.139000
     21 C3         -29.6180     3.9710   -44.2400 ca         0 XTW      -0.103000
     22 C4         -28.6750     4.3810   -43.3170 ca         0 XTW      -0.165000
     23 C5         -28.5010     3.6280   -42.1800 ca         0 XTW       0.108100
     24 O          -27.6260     3.9040   -41.1910 os         0 XTW      -0.251200
     25 C6         -26.9780     5.0600   -41.0090 ca         0 XTW       0.023100
     26 C7         -27.6930     6.2180   -40.7420 ca         0 XTW       0.126100
     27 C8         -27.0150     7.3940   -40.5030 ca         0 XTW      -0.136000
     28 O1         -29.0360     6.1490   -40.7500 oh         0 XTW      -0.491100
     29 C9         -25.6060     5.0320   -41.0050 ca         0 XTW      -0.120000
     30 C10        -24.9260     6.1950   -40.7800 ca         0 XTW      -0.120000
     31 C11        -25.6180     7.3780   -40.5310 ca         0 XTW      -0.100300
     32 C12        -24.8810     8.5260   -40.3240 c3         0 XTW       0.101600
     33 N          -24.2860     8.9110   -41.6650 na         0 XTW       0.045400
     34 C13        -24.9030     9.2170   -42.8290 cc         0 XTW      -0.224600
     35 N1         -23.0710     8.9690   -41.8120 nc         0 XTW      -0.168800
     36 N2         -22.8000     9.2920   -43.0210 nd         0 XTW      -0.349000
     37 C14        -23.9250     9.4560   -43.6730 cd         0 XTW       0.294600
     38 C15        -23.9580     9.8960   -45.0970 cx         0 XTW      -0.140000
     39 C16        -23.6610    11.3840   -45.1890 cx         0 XTW      -0.127400
     40 C17        -24.9860    10.8850   -45.6500 cx         0 XTW      -0.127400
@<TRIPOS>BOND
     1     1    39 1   
     2     2    32 1   
     3     3    39 1   
     4     4    40 1   
     5     5    22 1   
     6     6    40 1   
     7     7    21 1   
     8     8    20 1   
     9     9    32 1   
    10    10    19 1   
    11    11    28 1   
    12    12    29 1   
    13    13    27 1   
    14    14    30 1   
    15    15    38 1   
    16    16    34 1   
    17    17    18 1   
    18    18    19 ar  
    19    18    23 ar  
    20    19    20 ar  
    21    20    21 ar  
    22    21    22 ar  
    23    22    23 ar  
    24    23    24 1   
    25    24    25 1   
    26    25    26 ar  
    27    25    29 ar  
    28    26    27 ar  
    29    26    28 1   
    30    27    31 ar  
    31    29    30 ar  
    32    30    31 ar  
    33    31    32 1   
    34    32    33 1   
    35    33    34 1   
    36    33    35 1   
    37    34    37 2   
    38    35    36 2   
    39    36    37 1   
    40    37    38 1   
    41    38    39 1   
    42    38    40 1   
    43    39    40 1   
@<TRIPOS>SUBSTRUCTURE
     1 XTW         1 TEMP              0 ****  ****    0 ROOT
