@<TRIPOS>MOLECULE
9RZ
   67    71     1     0     0
SMALL
bcc


@<TRIPOS>ATOM
      1 C1          -0.2270    33.9600    21.9980 c        301 9RZ       0.680700
      2 N2           0.3630    35.1560    21.8160 n        301 9RZ      -0.379000
      3 O3          -0.7940    33.3910    21.1090 o        301 9RZ      -0.621100
      4 C4          -0.1730    33.3170    23.3160 ca       301 9RZ      -0.185600
      5 C5           1.0200    33.2020    23.9850 ca       301 9RZ      -0.014000
      6 C6          -1.3220    32.2370    25.1350 ca       301 9RZ      -0.139000
      7 C7          -1.3550    32.8410    23.9000 ca       301 9RZ       0.160100
      8 O8          -2.5010    32.9900    23.2370 oh       301 9RZ      -0.511100
      9 C9          -0.1240    32.1240    25.8260 ca       301 9RZ      -0.050000
     10 C10          1.0550    32.6110    25.2340 ca       301 9RZ      -0.121000
     11 C11          2.0950    32.3290    26.2130 cc       301 9RZ      -0.170300
     12 N12          1.4930    31.7890    27.2260 na       301 9RZ       0.098800
     13 N13          0.2570    31.6270    27.0240 nc       301 9RZ      -0.257400
     14 C14          3.4920    32.7630    26.0670 c        301 9RZ       0.687300
     15 O15          3.7920    33.6770    26.7670 o        301 9RZ      -0.603100
     16 C16          5.7560    32.8790    25.1280 c3       301 9RZ       0.072000
     17 N17          4.3910    32.2830    25.2130 n        301 9RZ      -0.434800
     18 C18          4.0350    31.1770    24.3510 c3       301 9RZ       0.073000
     19 C19          5.2250    30.2480    24.1980 c3       301 9RZ       0.115100
     20 C20          6.3950    31.0610    23.6740 c3       301 9RZ      -0.108400
     21 C21          6.8480    31.8730    24.8360 c3       301 9RZ      -0.102400
     22 O22          4.8700    29.2940    23.2820 os       301 9RZ      -0.416600
     23 C23          5.8760    28.3330    23.0450 c3       301 9RZ       0.116700
     24 C24          1.0430    35.8470    22.8250 ca       301 9RZ       0.000600
     25 C25          0.4060    36.3380    23.9450 ca       301 9RZ      -0.108500
     26 C26          2.4310    37.2480    24.8100 ca       301 9RZ       0.142600
     27 C27          3.0640    36.7740    23.6770 ca       301 9RZ      -0.160500
     28 C28          1.0760    37.0260    24.9170 ca       301 9RZ      -0.160500
     29 C29          2.3860    36.0860    22.7080 ca       301 9RZ      -0.108500
     30 C30          0.3020    35.7960    20.5210 c3       301 9RZ       0.081300
     31 N31          3.1160    37.9610    25.7990 nh       301 9RZ      -0.632000
     32 C32          2.5270    38.0430    27.1410 c3       301 9RZ       0.148300
     33 C33          3.1930    39.1240    27.9840 c3       301 9RZ       0.123900
     34 O34          4.5780    38.9250    27.9570 os       301 9RZ      -0.411600
     35 C35          5.1220    39.1180    26.6700 c3       301 9RZ       0.123900
     36 C36          4.5710    38.0240    25.7430 c3       301 9RZ       0.148300
     37 H01          1.9380    33.5760    23.5320 ha       301 9RZ       0.156000
     38 H02         -2.2400    31.8460    25.5730 ha       301 9RZ       0.169000
     39 H03         -2.8290    32.1290    22.9660 ho       301 9RZ       0.451000
     40 H04          1.9610    31.5270    28.0820 hn       301 9RZ       0.341700
     41 H05          5.9750    33.3080    26.1060 h1       301 9RZ       0.069200
     42 H06          5.7560    33.6260    24.3350 h1       301 9RZ       0.069200
     43 H07          3.7460    31.5600    23.3720 h1       301 9RZ       0.075700
     44 H08          3.2000    30.6290    24.7880 h1       301 9RZ       0.075700
     45 H09          5.5070    29.7820    25.1420 h1       301 9RZ       0.045700
     46 H10          6.1140    31.6830    22.8240 hc       301 9RZ       0.054200
     47 H11          7.1940    30.4050    23.3280 hc       301 9RZ       0.054200
     48 H12          7.0340    31.2390    25.7030 hc       301 9RZ       0.054700
     49 H13          7.7770    32.3880    24.5930 hc       301 9RZ       0.054700
     50 H14          6.7670    28.5920    23.6170 h1       301 9RZ       0.036367
     51 H15          5.5200    27.3500    23.3530 h1       301 9RZ       0.036367
     52 H16          6.1190    28.3150    21.9830 h1       301 9RZ       0.036367
     53 H17         -0.6650    36.1720    24.0590 ha       301 9RZ       0.142000
     54 H18          4.1320    36.9530    23.5520 ha       301 9RZ       0.139500
     55 H19          0.5340    37.4020    25.7840 ha       301 9RZ       0.139500
     56 H20          2.9220    35.7230    21.8310 ha       301 9RZ       0.142000
     57 H21          0.0620    36.8520    20.6490 h1       301 9RZ       0.051033
     58 H22          1.2670    35.7010    20.0220 h1       301 9RZ       0.051033
     59 H23         -0.4690    35.3190    19.9160 h1       301 9RZ       0.051033
     60 H24          2.6780    37.0840    27.6370 h1       301 9RZ       0.049700
     61 H25          1.4650    38.2710    27.0480 h1       301 9RZ       0.049700
     62 H26          2.8300    39.0700    29.0100 h1       301 9RZ       0.056950
     63 H27          2.9550    40.1070    27.5760 h1       301 9RZ       0.056950
     64 H28          6.2100    39.0620    26.7110 h1       301 9RZ       0.056950
     65 H29          4.8370    40.1000    26.2920 h1       301 9RZ       0.056950
     66 H30          4.8640    38.2620    24.7210 h1       301 9RZ       0.049700
     67 H31          4.9800    37.0610    26.0480 h1       301 9RZ       0.049700
@<TRIPOS>BOND
     1     1     2 1   
     2     1     3 2   
     3     1     4 1   
     4     2    24 1   
     5     2    30 1   
     6     4     5 ar  
     7     4     7 ar  
     8     5    10 ar  
     9     5    37 1   
    10     6     7 ar  
    11     6     9 ar  
    12     6    38 1   
    13     7     8 1   
    14     8    39 1   
    15     9    10 ar  
    16     9    13 2   
    17    10    11 2   
    18    11    12 1   
    19    11    14 1   
    20    12    13 1   
    21    12    40 1   
    22    14    15 2   
    23    14    17 1   
    24    16    17 1   
    25    16    21 1   
    26    16    41 1   
    27    16    42 1   
    28    17    18 1   
    29    18    19 1   
    30    18    43 1   
    31    18    44 1   
    32    19    20 1   
    33    19    22 1   
    34    19    45 1   
    35    20    21 1   
    36    20    46 1   
    37    20    47 1   
    38    21    48 1   
    39    21    49 1   
    40    22    23 1   
    41    23    50 1   
    42    23    51 1   
    43    23    52 1   
    44    24    25 ar  
    45    24    29 ar  
    46    25    28 ar  
    47    25    53 1   
    48    26    27 ar  
    49    26    28 ar  
    50    26    31 1   
    51    27    29 ar  
    52    27    54 1   
    53    28    55 1   
    54    29    56 1   
    55    30    57 1   
    56    30    58 1   
    57    30    59 1   
    58    31    32 1   
    59    31    36 1   
    60    32    33 1   
    61    32    60 1   
    62    32    61 1   
    63    33    34 1   
    64    33    62 1   
    65    33    63 1   
    66    34    35 1   
    67    35    36 1   
    68    35    64 1   
    69    35    65 1   
    70    36    66 1   
    71    36    67 1   
@<TRIPOS>SUBSTRUCTURE
     1 9RZ         1 TEMP              0 ****  ****    0 ROOT
