@<TRIPOS>MOLECULE
9RZ
   67    71     1     0     0
SMALL
bcc


@<TRIPOS>ATOM
      1 H31          4.8780    38.2380    24.7190 h1         0 9RZ       0.049700
      2 H14          2.8300    39.0700    29.0100 h1         0 9RZ       0.056950
      3 H30          4.9680    37.0640    26.0730 h1         0 9RZ       0.049700
      4 H04          6.1140    31.6830    22.8240 hc         0 9RZ       0.054200
      5 H03          5.5070    29.7820    25.1420 h1         0 9RZ       0.045700
      6 H02          5.7560    33.6260    24.3350 h1         0 9RZ       0.069200
      7 H29          2.9220    35.7230    21.8310 ha         0 9RZ       0.142000
      8 H05          7.1940    30.4050    23.3280 hc         0 9RZ       0.054200
      9 H12          1.4730    38.2980    27.0340 h1         0 9RZ       0.049700
     10 H07          7.0070    31.2310    25.7020 hc         0 9RZ       0.054700
     11 H10          1.2670    35.7010    20.0220 h1         0 9RZ       0.051033
     12 H09          0.0620    36.8520    20.6490 h1         0 9RZ       0.051033
     13 H20         -2.8290    32.1290    22.9660 ho         0 9RZ       0.451000
     14 H08          4.1320    36.9530    23.5520 ha         0 9RZ       0.139500
     15 H01          5.9750    33.3080    26.1060 h1         0 9RZ       0.069200
     16 H06          7.7890    32.3760    24.6150 hc         0 9RZ       0.054700
     17 H16          6.2100    39.0620    26.7110 h1         0 9RZ       0.056950
     18 H13          2.6470    37.0810    27.6400 h1         0 9RZ       0.049700
     19 H19         -2.2400    31.8460    25.5730 ha         0 9RZ       0.169000
     20 H18          1.9380    33.5760    23.5320 ha         0 9RZ       0.156000
     21 H17          4.8370    40.1000    26.2920 h1         0 9RZ       0.056950
     22 H28          0.5340    37.4020    25.7840 ha         0 9RZ       0.139500
     23 H23          3.7430    31.5580    23.3720 h1         0 9RZ       0.075700
     24 H22          3.2020    30.6290    24.7910 h1         0 9RZ       0.075700
     25 H21          1.9610    31.5270    28.0820 hn         0 9RZ       0.341700
     26 H24          6.7670    28.5920    23.6170 h1         0 9RZ       0.036367
     27 H27         -0.6650    36.1720    24.0590 ha         0 9RZ       0.142000
     28 H26          6.1190    28.3150    21.9830 h1         0 9RZ       0.036367
     29 H25          5.5200    27.3500    23.3530 h1         0 9RZ       0.036367
     30 H11         -0.4690    35.3190    19.9160 h1         0 9RZ       0.051033
     31 H15          2.9550    40.1070    27.5760 h1         0 9RZ       0.056950
     32 C           -0.2270    33.9600    21.9980 c          0 9RZ       0.680700
     33 C1          -1.3550    32.8410    23.9000 ca         0 9RZ       0.160100
     34 C2          -0.1240    32.1240    25.8260 ca         0 9RZ      -0.050000
     35 C3           1.0550    32.6110    25.2340 ca         0 9RZ      -0.121000
     36 C4           2.0950    32.3290    26.2130 cc         0 9RZ      -0.170300
     37 C5           3.4920    32.7630    26.0670 c          0 9RZ       0.687300
     38 C6           5.7560    32.8790    25.1280 c3         0 9RZ       0.072000
     39 C7           5.2250    30.2480    24.1980 c3         0 9RZ       0.115100
     40 C8           6.3950    31.0610    23.6740 c3         0 9RZ      -0.108400
     41 C9           6.8480    31.8730    24.8360 c3         0 9RZ      -0.102400
     42 C10          1.0430    35.8470    22.8250 ca         0 9RZ       0.000600
     43 C11          3.0640    36.7740    23.6770 ca         0 9RZ      -0.160500
     44 C12          0.3020    35.7960    20.5210 c3         0 9RZ       0.081300
     45 C13          2.5270    38.0430    27.1410 c3         0 9RZ       0.148300
     46 C14          3.1930    39.1240    27.9840 c3         0 9RZ       0.123900
     47 C15          5.1220    39.1180    26.6700 c3         0 9RZ       0.123900
     48 N            0.3630    35.1560    21.8160 n          0 9RZ      -0.379000
     49 O           -0.7940    33.3910    21.1090 o          0 9RZ      -0.621100
     50 C16         -0.1730    33.3170    23.3160 ca         0 9RZ      -0.185600
     51 C17          1.0200    33.2020    23.9850 ca         0 9RZ      -0.014000
     52 C18         -1.3220    32.2370    25.1350 ca         0 9RZ      -0.139000
     53 O1          -2.5010    32.9900    23.2370 oh         0 9RZ      -0.511100
     54 N1           1.4930    31.7890    27.2260 na         0 9RZ       0.098800
     55 N2           0.2570    31.6270    27.0240 nc         0 9RZ      -0.257400
     56 O2           3.7920    33.6770    26.7670 o          0 9RZ      -0.603100
     57 N3           4.3910    32.2830    25.2130 n          0 9RZ      -0.434800
     58 C19          4.0350    31.1770    24.3510 c3         0 9RZ       0.073000
     59 O3           4.8700    29.2940    23.2820 os         0 9RZ      -0.416600
     60 C20          5.8760    28.3330    23.0450 c3         0 9RZ       0.116700
     61 C21          0.4060    36.3380    23.9450 ca         0 9RZ      -0.108500
     62 C22          2.4310    37.2480    24.8100 ca         0 9RZ       0.142600
     63 C23          1.0760    37.0260    24.9170 ca         0 9RZ      -0.160500
     64 C24          2.3860    36.0860    22.7080 ca         0 9RZ      -0.108500
     65 N4           3.1160    37.9610    25.7990 nh         0 9RZ      -0.632000
     66 O4           4.5780    38.9250    27.9570 os         0 9RZ      -0.411600
     67 C25          4.5710    38.0240    25.7430 c3         0 9RZ       0.148300
@<TRIPOS>BOND
     1     1    67 1   
     2     2    46 1   
     3     3    67 1   
     4     4    40 1   
     5     5    39 1   
     6     6    38 1   
     7     7    64 1   
     8     8    40 1   
     9     9    45 1   
    10    10    41 1   
    11    11    44 1   
    12    12    44 1   
    13    13    53 1   
    14    14    43 1   
    15    15    38 1   
    16    16    41 1   
    17    17    47 1   
    18    18    45 1   
    19    19    52 1   
    20    20    51 1   
    21    21    47 1   
    22    22    63 1   
    23    23    58 1   
    24    24    58 1   
    25    25    54 1   
    26    26    60 1   
    27    27    61 1   
    28    28    60 1   
    29    29    60 1   
    30    30    44 1   
    31    31    46 1   
    32    32    48 1   
    33    32    49 2   
    34    32    50 1   
    35    33    50 ar  
    36    33    52 ar  
    37    33    53 1   
    38    34    35 ar  
    39    34    52 ar  
    40    34    55 2   
    41    35    36 2   
    42    35    51 ar  
    43    36    37 1   
    44    36    54 1   
    45    37    56 2   
    46    37    57 1   
    47    38    41 1   
    48    38    57 1   
    49    39    40 1   
    50    39    58 1   
    51    39    59 1   
    52    40    41 1   
    53    42    48 1   
    54    42    61 ar  
    55    42    64 ar  
    56    43    62 ar  
    57    43    64 ar  
    58    44    48 1   
    59    45    46 1   
    60    45    65 1   
    61    46    66 1   
    62    47    66 1   
    63    47    67 1   
    64    50    51 ar  
    65    54    55 1   
    66    57    58 1   
    67    59    60 1   
    68    61    63 ar  
    69    62    63 ar  
    70    62    65 1   
    71    65    67 1   
@<TRIPOS>SUBSTRUCTURE
     1 9RZ         1 TEMP              0 ****  ****    0 ROOT
