REMARK  Name = /web/media/ligands/6ELN_ligand.pdb
REMARK  3 active torsions:
REMARK  status: ('A' for Active; 'I' for Inactive)
REMARK    1  A    between atoms: C_3  and  C_6
REMARK    2  A    between atoms: C_4  and  C_7
REMARK    3  A    between atoms: C_11  and  O_21
REMARK                            x       y       z     vdW  Elec       q    Type
REMARK                         _______ _______ _______ _____ _____    ______ ____
ROOT
ATOM      1  N   UNL     1      63.443  36.048  22.157  0.00  0.00    -0.152 NA
ATOM      2  N   UNL     1      63.222  34.992  23.044  0.00  0.00    -0.148 NA
ATOM      3  C   UNL     1      64.030  35.152  24.084  0.00  0.00    +0.107 A 
ATOM      4  C   UNL     1      64.757  36.378  23.904  0.00  0.00    +0.035 A 
ATOM      5  C   UNL     1      64.364  36.889  22.689  0.00  0.00    +0.082 A 
ATOM      6  C   UNL     1      64.847  38.153  22.017  0.00  0.00    +0.054 C 
ENDROOT
BRANCH   3   7
ATOM      7  C   UNL     1      64.086  34.276  25.283  0.00  0.00    +0.059 A 
ATOM      8  C   UNL     1      62.882  33.868  25.913  0.00  0.00    +0.200 A 
ATOM      9  O   UNL     1      61.683  34.238  25.398  0.00  0.00    -0.286 OA
ATOM     10  C   UNL     1      62.920  33.099  27.078  0.00  0.00    +0.084 A 
ATOM     11  C   UNL     1      64.162  32.686  27.581  0.00  0.00    +0.199 A 
ATOM     12  C   UNL     1      65.359  33.071  26.948  0.00  0.00    +0.042 A 
ATOM     13  O   UNL     1      64.233  31.945  28.714  0.00  0.00    -0.286 OA
ATOM     14  C   UNL     1      65.328  33.852  25.806  0.00  0.00    +0.008 A 
ENDBRANCH   3   7
BRANCH   4  15
ATOM     15  C   UNL     1      65.735  36.984  24.871  0.00  0.00    +0.003 A 
ATOM     16  C   UNL     1      67.107  37.039  24.533  0.00  0.00    +0.003 A 
ATOM     17  C   UNL     1      68.028  37.592  25.416  0.00  0.00    +0.037 A 
ATOM     18  C   UNL     1      67.626  38.063  26.674  0.00  0.00    +0.139 A 
ATOM     19  C   UNL     1      66.264  37.992  27.034  0.00  0.00    +0.037 A 
ATOM     20  C   UNL     1      65.329  37.428  26.151  0.00  0.00    +0.003 A 
BRANCH  18  21
ATOM     21  O   UNL     1      68.605  38.609  27.471  0.00  0.00    -0.471 OA
ATOM     22  C   UNL     1      68.302  39.196  28.743  0.00  0.00    +0.252 C 
ENDBRANCH  18  21
ENDBRANCH   4  15
TORSDOF 3
