@<TRIPOS>MOLECULE
/web/media/ligands/5LS1_ligand.pdb
 30 33 0 0 0
SMALL
GASTEIGER

@<TRIPOS>ATOM
      1 C          25.6720   24.1990   12.9100 C.2     1  UNL1        0.1739
      2 C          26.7470   23.9310   11.9520 C.ar    1  UNL1        0.0442
      3 C          28.0540   24.1750   12.3450 C.ar    1  UNL1        0.0438
      4 C          28.1020   23.4780   10.2160 C.ar    1  UNL1        0.0756
      5 C          26.7870   23.4840   10.5860 C.ar    1  UNL1       -0.0005
      6 C          27.0790   26.8470   13.7220 C.3     1  UNL1        0.0008
      7 C          27.7250   25.7170   15.8460 C.3     1  UNL1        0.0008
      8 C          25.6190   23.0930    9.6960 C.3     1  UNL1        0.0327
      9 C          30.3140   24.1190   11.1760 C.ar    1  UNL1        0.0650
     10 C          31.1680   23.6770   12.1790 C.ar    1  UNL1        0.0177
     11 C          26.0700   24.6200   14.3060 C.3     1  UNL1        0.0695
     12 C          27.3340   25.4900   14.3860 C.3     1  UNL1        0.0128
     13 C          28.4680   24.7530   13.6620 C.3     1  UNL1        0.0446
     14 N          28.8950   23.8930   11.2720 N.ar    1  UNL1       -0.3087
     15 O          24.4910   24.1970   12.5710 O.2     1  UNL1       -0.2913
     16 C          32.5160   23.9870   12.1210 C.ar    1  UNL1        0.0074
     17 C          33.0390   24.7190   11.0500 C.ar    1  UNL1        0.0716
     18 C          32.1740   25.1610   10.0220 C.ar    1  UNL1        0.0711
     19 C          30.8130   24.8510   10.0960 C.ar    1  UNL1        0.0337
     20 C          34.5030   25.0400   11.0330 C.2     1  UNL1        0.2854
     21 N          32.6690   25.9180    8.9610 N.pl3   1  UNL1       -0.2391
     22 C          31.8840   26.4330    7.8380 C.3     1  UNL1        0.0933
     23 C          31.4570   27.8640    8.1100 C.3     1  UNL1        0.0293
     24 C          30.6460   28.4470    6.9520 C.3     1  UNL1        0.0663
     25 C          31.3250   28.2750    5.6220 C.2     1  UNL1        0.1508
     26 C          31.9100   26.9150    5.3500 C.3     1  UNL1        0.0663
     27 C          32.6860   26.3490    6.5420 C.3     1  UNL1        0.0293
     28 O          31.3640   29.1670    4.8040 O.2     1  UNL1       -0.2961
     29 N          35.3470   24.1620   11.5800 N.am    1  UNL1       -0.0837
     30 O          34.8880   26.0960   10.5240 O.2     1  UNL1       -0.2666
@<TRIPOS>BOND
     1     1    11    1
     2     2     3   ar
     3     2     1    1
     4     3    13    1
     5     4     5   ar
     6     4    14   ar
     7     5     2   ar
     8     6    12    1
     9     8     5    1
    10     9    14    1
    11     9    10   ar
    12    11    12    1
    13    12     7    1
    14    13    12    1
    15    14     3   ar
    16    15     1    2
    17    16    10   ar
    18    17    16   ar
    19    18    19   ar
    20    18    17   ar
    21    19     9   ar
    22    20    17    1
    23    20    29   am
    24    21    18    1
    25    22    23    1
    26    22    21    1
    27    24    23    1
    28    25    24    1
    29    26    25    1
    30    26    27    1
    31    27    22    1
    32    28    25    2
    33    30    20    2
