/web/media/ligands/5LS1_ligand.pdb
 OpenBabel04242009293D

 30 33  0  0  0  0  0  0  0  0999 V2000
   25.6720   24.1990   12.9100 C   0  0  0  0  0  0  0  0  0  0  0  0
   26.7470   23.9310   11.9520 C   0  0  0  0  0  0  0  0  0  0  0  0
   28.0540   24.1750   12.3450 C   0  0  0  0  0  0  0  0  0  0  0  0
   28.1020   23.4780   10.2160 C   0  0  0  0  0  0  0  0  0  0  0  0
   26.7870   23.4840   10.5860 C   0  0  0  0  0  0  0  0  0  0  0  0
   27.0790   26.8470   13.7220 C   0  0  0  0  0  0  0  0  0  0  0  0
   27.7250   25.7170   15.8460 C   0  0  0  0  0  0  0  0  0  0  0  0
   25.6190   23.0930    9.6960 C   0  0  0  0  0  0  0  0  0  0  0  0
   30.3140   24.1190   11.1760 C   0  0  0  0  0  0  0  0  0  0  0  0
   31.1680   23.6770   12.1790 C   0  0  0  0  0  0  0  0  0  0  0  0
   26.0700   24.6200   14.3060 C   0  0  0  0  0  0  0  0  0  0  0  0
   27.3340   25.4900   14.3860 C   0  0  0  0  0  0  0  0  0  0  0  0
   28.4680   24.7530   13.6620 C   0  0  0  0  0  0  0  0  0  0  0  0
   28.8950   23.8930   11.2720 N   0  0  0  0  0  0  0  0  0  0  0  0
   24.4910   24.1970   12.5710 O   0  0  0  0  0  0  0  0  0  0  0  0
   32.5160   23.9870   12.1210 C   0  0  0  0  0  0  0  0  0  0  0  0
   33.0390   24.7190   11.0500 C   0  0  0  0  0  0  0  0  0  0  0  0
   32.1740   25.1610   10.0220 C   0  0  0  0  0  0  0  0  0  0  0  0
   30.8130   24.8510   10.0960 C   0  0  0  0  0  0  0  0  0  0  0  0
   34.5030   25.0400   11.0330 C   0  0  0  0  0  0  0  0  0  0  0  0
   32.6690   25.9180    8.9610 N   0  0  0  0  0  0  0  0  0  0  0  0
   31.8840   26.4330    7.8380 C   0  0  0  0  0  0  0  0  0  0  0  0
   31.4570   27.8640    8.1100 C   0  0  0  0  0  0  0  0  0  0  0  0
   30.6460   28.4470    6.9520 C   0  0  0  0  0  0  0  0  0  0  0  0
   31.3250   28.2750    5.6220 C   0  0  0  0  0  0  0  0  0  0  0  0
   31.9100   26.9150    5.3500 C   0  0  0  0  0  0  0  0  0  0  0  0
   32.6860   26.3490    6.5420 C   0  0  0  0  0  0  0  0  0  0  0  0
   31.3640   29.1670    4.8040 O   0  0  0  0  0  0  0  0  0  0  0  0
   35.3470   24.1620   11.5800 N   0  0  0  0  0  0  0  0  0  0  0  0
   34.8880   26.0960   10.5240 O   0  0  0  0  0  0  0  0  0  0  0  0
  1 11  1  0  0  0  0
  2  3  2  0  0  0  0
  2  1  1  0  0  0  0
  3 13  1  0  0  0  0
  4  5  2  0  0  0  0
  4 14  1  0  0  0  0
  5  2  1  0  0  0  0
  6 12  1  0  0  0  0
  8  5  1  0  0  0  0
  9 14  1  0  0  0  0
  9 10  2  0  0  0  0
 11 12  1  0  0  0  0
 12  7  1  0  0  0  0
 13 12  1  0  0  0  0
 14  3  1  0  0  0  0
 15  1  2  0  0  0  0
 16 10  1  0  0  0  0
 17 16  2  0  0  0  0
 18 19  2  0  0  0  0
 18 17  1  0  0  0  0
 19  9  1  0  0  0  0
 20 17  1  0  0  0  0
 20 29  1  0  0  0  0
 21 18  1  0  0  0  0
 22 23  1  0  0  0  0
 22 21  1  0  0  0  0
 24 23  1  0  0  0  0
 25 24  1  0  0  0  0
 26 25  1  0  0  0  0
 26 27  1  0  0  0  0
 27 22  1  0  0  0  0
 28 25  2  0  0  0  0
 30 20  2  0  0  0  0
M  END
>  <REMARK>
 800 SITE_DESCRIPTION: binding site for residue 73Z A 4000                

>  <HET>
 73Z  A4000      30                                                       

>  <HETNAM>
     73Z 2-[(4-OXIDANYLIDENECYCLOHEXYL)AMINO]-4-(3,6,6-                   
   2 73Z  TRIMETHYL-4-OXIDANYLIDENE-5,7-DIHYDROINDOL-1-YL)                
   3 73Z  BENZAMIDE                                                       

>  <FORMUL>
   2  73Z    C24 H29 N3 O3                                                

$$$$
