REMARK  Name = /web/media/ligands/5LS1_ligand.pdb
REMARK  4 active torsions:
REMARK  status: ('A' for Active; 'I' for Inactive)
REMARK    1  A    between atoms: C_9  and  N_14
REMARK    2  A    between atoms: C_17  and  C_20
REMARK    3  A    between atoms: C_18  and  N_21
REMARK    4  A    between atoms: N_21  and  C_22
REMARK                            x       y       z     vdW  Elec       q    Type
REMARK                         _______ _______ _______ _____ _____    ______ ____
ROOT
ATOM      1  C   UNL     1      30.314  24.119  11.176  0.00  0.00    +0.065 A 
ATOM      2  C   UNL     1      30.813  24.851  10.096  0.00  0.00    +0.034 A 
ATOM      3  C   UNL     1      32.174  25.161  10.022  0.00  0.00    +0.071 A 
ATOM      4  C   UNL     1      33.039  24.719  11.050  0.00  0.00    +0.072 A 
ATOM      5  C   UNL     1      32.516  23.987  12.121  0.00  0.00    +0.007 A 
ATOM      6  C   UNL     1      31.168  23.677  12.179  0.00  0.00    +0.018 A 
ENDROOT
BRANCH   1  13
ATOM      7  C   UNL     1      25.672  24.199  12.910  0.00  0.00    +0.174 C 
ATOM      8  O   UNL     1      24.491  24.197  12.571  0.00  0.00    -0.291 OA
ATOM      9  C   UNL     1      26.747  23.931  11.952  0.00  0.00    +0.044 A 
ATOM     10  C   UNL     1      26.787  23.484  10.586  0.00  0.00    -0.000 A 
ATOM     11  C   UNL     1      25.619  23.093   9.696  0.00  0.00    +0.033 C 
ATOM     12  C   UNL     1      28.102  23.478  10.216  0.00  0.00    +0.076 A 
ATOM     13  N   UNL     1      28.895  23.893  11.272  0.00  0.00    -0.309 N 
ATOM     14  C   UNL     1      28.054  24.175  12.345  0.00  0.00    +0.044 A 
ATOM     15  C   UNL     1      28.468  24.753  13.662  0.00  0.00    +0.045 C 
ATOM     16  C   UNL     1      27.334  25.490  14.386  0.00  0.00    +0.013 C 
ATOM     17  C   UNL     1      27.725  25.717  15.846  0.00  0.00    +0.001 C 
ATOM     18  C   UNL     1      27.079  26.847  13.722  0.00  0.00    +0.001 C 
ATOM     19  C   UNL     1      26.070  24.620  14.306  0.00  0.00    +0.070 C 
ENDBRANCH   1  13
BRANCH   4  20
ATOM     20  C   UNL     1      34.503  25.040  11.033  0.00  0.00    +0.285 C 
ATOM     21  O   UNL     1      34.888  26.096  10.524  0.00  0.00    -0.267 OA
ATOM     22  N   UNL     1      35.347  24.162  11.580  0.00  0.00    -0.084 NA
ENDBRANCH   4  20
BRANCH   3  23
ATOM     23  N   UNL     1      32.669  25.918   8.961  0.00  0.00    -0.239 NA
BRANCH  23  24
ATOM     24  C   UNL     1      31.884  26.433   7.838  0.00  0.00    +0.093 C 
ATOM     25  C   UNL     1      32.686  26.349   6.542  0.00  0.00    +0.029 C 
ATOM     26  C   UNL     1      31.910  26.915   5.350  0.00  0.00    +0.066 C 
ATOM     27  C   UNL     1      31.325  28.275   5.622  0.00  0.00    +0.151 C 
ATOM     28  O   UNL     1      31.364  29.167   4.804  0.00  0.00    -0.296 OA
ATOM     29  C   UNL     1      30.646  28.447   6.952  0.00  0.00    +0.066 C 
ATOM     30  C   UNL     1      31.457  27.864   8.110  0.00  0.00    +0.029 C 
ENDBRANCH  23  24
ENDBRANCH   3  23
TORSDOF 4
