REMARK  Name = /web/media/ligands/1QSG_ligand.pdb
REMARK  2 active torsions:
REMARK  status: ('A' for Active; 'I' for Inactive)
REMARK    1  A    between atoms: C_4  and  O_13
REMARK    2  A    between atoms: C_10  and  O_13
REMARK                            x       y       z     vdW  Elec       q    Type
REMARK                         _______ _______ _______ _____ _____    ______ ____
ROOT
ATOM      1  O   UNL     1      12.401  14.639  12.490  0.00  0.00    -0.449 OA
ENDROOT
BRANCH   1   5
ATOM      2  C   UNL     1       9.533  14.473  10.219  0.00  0.00    +0.057 A 
ATOM      3  C   UNL     1      10.718  14.164  10.903  0.00  0.00    +0.231 A 
ATOM      4  O   UNL     1      11.375  12.959  10.622  0.00  0.00    -0.283 OA
ATOM      5  C   UNL     1      11.218  14.993  11.884  0.00  0.00    +0.184 A 
ATOM      6  C   UNL     1      10.542  16.158  12.166  0.00  0.00    +0.042 A 
ATOM      7  C   UNL     1       9.412  16.576  11.438  0.00  0.00    +0.015 A 
ATOM      8  C   UNL     1       8.914  15.690  10.496  0.00  0.00    +0.061 A 
ATOM      9 CL   UNL     1       7.460  16.103   9.619  0.00  0.00    -0.082 Cl
ENDBRANCH   1   5
BRANCH   1  10
ATOM     10  C   UNL     1      13.661  14.870  11.901  0.00  0.00    +0.156 A 
ATOM     11  C   UNL     1      13.749  15.565  10.710  0.00  0.00    +0.039 A 
ATOM     12  C   UNL     1      14.976  15.865  10.072  0.00  0.00    +0.015 A 
ATOM     13  C   UNL     1      16.113  15.447  10.706  0.00  0.00    +0.059 A 
ATOM     14 CL   UNL     1      17.677  15.805  10.002  0.00  0.00    -0.082 Cl
ATOM     15  C   UNL     1      16.076  14.760  11.931  0.00  0.00    +0.026 A 
ATOM     16  C   UNL     1      14.828  14.483  12.492  0.00  0.00    +0.093 A 
ATOM     17 CL   UNL     1      14.787  13.689  14.044  0.00  0.00    -0.079 Cl
ENDBRANCH   1  10
TORSDOF 2
