@<TRIPOS>MOLECULE
/web/media/ligands/4OXY_ligand.pdb
 21 22 0 0 0
SMALL
GASTEIGER

@<TRIPOS>ATOM
      1 C          -3.5150    0.2160   31.5550 C.3     1  UNL1        0.0304
      2 C          -7.4870   -6.4780   29.2640 C.ar    1  UNL1        0.1677
      3 C          -6.8860   -8.1200   27.5890 C.ar    1  UNL1        0.0272
      4 C          -6.8360   -5.4900   28.5170 C.ar    1  UNL1        0.0392
      5 C          -6.6110   -3.7130   32.7830 C.ar    1  UNL1       -0.0006
      6 C          -6.8870   -4.9300   32.1600 C.ar    1  UNL1        0.0405
      7 C          -7.8100   -4.9600   31.1170 C.ar    1  UNL1        0.1840
      8 C          -8.4460   -3.7770   30.7160 C.ar    1  UNL1        0.2296
      9 C          -8.1790   -2.5530   31.3520 C.ar    1  UNL1        0.0413
     10 C          -7.2450   -2.5320   32.3930 C.ar    1  UNL1       -0.0144
     11 C          -6.8940   -1.2370   33.1180 C.3     1  UNL1        0.0521
     12 C          -5.9270   -0.2810   32.4290 C.2     1  UNL1       -0.0260
     13 C          -4.5800   -0.8050   31.9570 C.2     1  UNL1       -0.0300
     14 O          -9.3300   -3.8370   29.6450 O.3     1  UNL1       -0.2833
     15 O          -8.0940   -6.1750   30.4850 O.3     1  UNL1       -0.4486
     16 C          -7.5170   -7.7820   28.7870 C.ar    1  UNL1        0.1771
     17 C          -6.2400   -7.1280   26.8440 C.ar    1  UNL1        0.0019
     18 C          -6.2140   -5.8110   27.3070 C.ar    1  UNL1        0.0032
     19 N          -8.1990   -8.7880   29.5570 N.pl3   1  UNL1        0.0607
     20 O          -7.6320   -9.7750   29.8530 O.2     1  UNL1       -0.1260
     21 O          -9.3070   -8.5960   29.8820 O.2     1  UNL1       -0.1260
@<TRIPOS>BOND
     1     1    13    1
     2     2    15    1
     3     3    16   ar
     4     4     2   ar
     5     6     5   ar
     6     7     6   ar
     7     8     7   ar
     8     8     9   ar
     9     9    10   ar
    10    10     5   ar
    11    10    11    1
    12    12    11    1
    13    13    12    2
    14    14     8    1
    15    15     7    1
    16    16     2   ar
    17    16    19    1
    18    17    18   ar
    19    17     3   ar
    20    18     4   ar
    21    19    20    2
    22    19    21    2
