/web/media/ligands/6B1E_ligand.pdb
 OpenBabel04242009293D

 22 25  0  0  1  0  0  0  0  0999 V2000
   36.7730   52.0420   36.3790 O   0  0  0  0  0  0  0  0  0  0  0  0
   37.0330   50.9960   35.7850 C   0  0  0  0  0  0  0  0  0  0  0  0
   36.2240   49.8830   35.8120 N   0  0  0  0  0  0  0  0  0  0  0  0
   36.4910   48.6330   35.0980 C   0  0  0  0  0  0  0  0  0  0  0  0
   35.2000   47.8100   35.2720 C   0  0  0  0  0  0  0  0  0  0  0  0
   34.1500   48.8630   35.6320 C   0  0  0  0  0  0  0  0  0  0  0  0
   34.9350   49.8510   36.4880 C   0  0  1  0  0  0  0  0  0  0  0  0
   35.1110   49.4970   37.9560 C   0  0  0  0  0  0  0  0  0  0  0  0
   35.9170   48.6660   38.5030 N   0  0  0  0  0  0  0  0  0  0  0  0
   38.2860   50.8230   34.9580 C   0  0  0  0  0  0  0  0  0  0  0  0
   39.2000   52.0090   35.0190 N   0  0  0  0  0  0  0  0  0  0  0  0
   40.2550   51.8940   36.0790 C   0  0  1  0  0  0  0  0  0  0  0  0
   39.6770   51.4130   37.4360 C   0  0  0  0  0  0  0  0  0  0  0  0
   40.8330   51.2490   38.4390 C   0  0  1  0  0  0  0  0  0  0  0  0
   41.9260   50.3010   37.9000 C   0  0  0  0  0  0  0  0  0  0  0  0
   42.4940   50.8430   36.5820 C   0  0  1  0  0  0  0  0  0  0  0  0
   41.3010   50.8770   35.5890 C   0  0  0  0  0  0  0  0  0  0  0  0
   43.0540   52.2570   36.8180 C   0  0  0  0  0  0  0  0  0  0  0  0
   41.4370   52.6380   38.6810 C   0  0  0  0  0  0  0  0  0  0  0  0
   41.9780   53.1950   37.3670 C   0  0  1  0  0  0  0  0  0  0  0  0
   42.5030   54.4770   37.6430 O   0  0  0  0  0  0  0  0  0  0  0  0
   40.8680   53.2900   36.3100 C   0  0  0  0  0  0  0  0  0  0  0  0
  2  3  1  0  0  0  0
  2  1  2  0  0  0  0
  3  7  1  0  0  0  0
  4  5  1  0  0  0  0
  4  3  1  0  0  0  0
  5  6  1  0  0  0  0
  6  7  1  0  0  0  0
  7  8  1  1  0  0  0
  8  9  2  0  0  0  0
 10 11  1  0  0  0  0
 10  2  1  0  0  0  0
 12 11  1  6  0  0  0
 12 22  1  0  0  0  0
 12 13  1  0  0  0  0
 14 13  1  6  0  0  0
 14 19  1  0  0  0  0
 15 14  1  0  0  0  0
 16 17  1  6  0  0  0
 16 18  1  0  0  0  0
 16 15  1  0  0  0  0
 17 12  1  0  0  0  0
 18 20  1  0  0  0  0
 20 21  1  1  0  0  0
 20 19  1  0  0  0  0
 22 20  1  0  0  0  0
M  END
>  <REMARK>
 500   OG   SER A   630     C20  LF7 A   801              1.57            
 800 SITE_DESCRIPTION: binding site for residue LF7 A 801                 
 800 SITE_DESCRIPTION: binding site for Di-peptide LF7 B 801 and SER B    

>  <HET>
 LF7  A 801      22                                                       
 LF7  B 801      22                                                       

>  <HETNAM>
     LF7 2-{[(1R,3S,5R,7S)-3-HYDROXYTRICYCLO[3.3.1.1~3,7~]DECAN-          
   2 LF7  1-YL]AMINO}-1-{(2S)-2-[(E)-IMINOMETHYL]PYRROLIDIN-1-            
   3 LF7  YL}ETHAN-1-ONE                                                  

>  <HETSYN>
     LF7 VILDAGLIPTIN, BOUND FORM                                         

>  <FORMUL>
   3  LF7    2(C17 H27 N3 O2)                                             

>  <LINK>
       OG  SER B 630                 C20 LF7 B 801     1555   1555  1.42  

>  <ANISOU>
12034  O20 LF7 A 801     1504   1667   1556   -125     41     72       O  
12034  O20 LF7 A 801     1504   1667   1556   -125     41     72       O  
12035  C14 LF7 A 801     1539   1698   1586   -127     36     61       C  
12035  C14 LF7 A 801     1539   1698   1586   -127     36     61       C  
12036  N15 LF7 A 801     1530   1687   1580   -137     29     53       N  
12036  N15 LF7 A 801     1530   1687   1580   -137     29     53       N  
12037  C19 LF7 A 801     1497   1646   1545   -140     23     35       C  
12037  C19 LF7 A 801     1497   1646   1545   -140     23     35       C  
12038  C18 LF7 A 801     1430   1580   1487   -154     16     31       C  
12038  C18 LF7 A 801     1430   1580   1487   -154     16     31       C  
12039  C17 LF7 A 801     1567   1740   1626   -155     19     48       C  
12039  C17 LF7 A 801     1567   1740   1626   -155     19     48       C  
12040  C16 LF7 A 801     1515   1678   1573   -145     27     60       C  
12040  C16 LF7 A 801     1515   1678   1573   -145     27     60       C  
12041  C20 LF7 A 801     1589   1732   1652   -149     29     66       C  
12041  C20 LF7 A 801     1589   1732   1652   -149     29     66       C  
12042  N2  LF7 A 801     1806   1927   1870   -151     27     64       N  
12042  N2  LF7 A 801     1806   1927   1870   -151     27     64       N  
12043  C13 LF7 A 801     1541   1702   1582   -120     37     53       C  
12043  C13 LF7 A 801     1541   1702   1582   -120     37     53       C  
12044  N12 LF7 A 801     1368   1532   1410   -113     44     64       N  
12044  N12 LF7 A 801     1368   1532   1410   -113     44     64       N  
12045  C7  LF7 A 801     1754   1898   1799   -113     46     64       C  
12045  C7  LF7 A 801     1754   1898   1799   -113     46     64       C  
12046  C8  LF7 A 801     1747   1874   1796   -120     43     65       C  
12046  C8  LF7 A 801     1747   1874   1796   -120     43     65       C  
12047  C1  LF7 A 801     2079   2194   2130   -118     44     65       C  
12047  C1  LF7 A 801     2079   2194   2130   -118     44     65       C  
12048  C2  LF7 A 801     1984   2094   2034   -113     42     58       C  
12048  C2  LF7 A 801     1984   2094   2034   -113     42     58       C  
12049  C10 LF7 A 801     1924   2051   1971   -106     46     55       C  
12049  C10 LF7 A 801     1924   2051   1971   -106     46     55       C  
12050  C9  LF7 A 801     1842   1981   1883   -108     44     52       C  
12050  C9  LF7 A 801     1842   1981   1883   -108     44     52       C  
12051  C5  LF7 A 801     2065   2201   2115   -106     52     65       C  
12051  C5  LF7 A 801     2065   2201   2115   -106     52     65       C  
12052  C21 LF7 A 801     2024   2146   2078   -117     51     71       C  
12052  C21 LF7 A 801     2024   2146   2078   -117     51     71       C  
12053  C3  LF7 A 801     2074   2208   2128   -111     54     72       C  
12053  C3  LF7 A 801     2074   2208   2128   -111     54     72       C  
12054  O4  LF7 A 801     2428   2563   2490   -112     60     79       O  
12054  O4  LF7 A 801     2428   2563   2490   -112     60     79       O  
12055  C6  LF7 A 801     1993   2140   2044   -110     53     74       C  
12055  C6  LF7 A 801     1993   2140   2044   -110     53     74       C  
12183  O20 LF7 B 801     1447   2034   1769    -43    104     62       O  
12184  C14 LF7 B 801     1251   1849   1558    -39    100     47       C  
12185  N15 LF7 B 801     1298   1926   1602    -39     95     44       N  
12186  C19 LF7 B 801     1469   2110   1757    -32     88     21       C  
12187  C18 LF7 B 801     1252   1922   1540    -36     83     22       C  
12188  C17 LF7 B 801     1409   2068   1715    -46     87     45       C  
12189  C16 LF7 B 801     1446   2095   1763    -46     95     61       C  
12190  C20 LF7 B 801     1675   2364   2002    -46     97     84       C  
12191  N2  LF7 B 801     1691   2414   2011    -42     97     84       N  
12192  C13 LF7 B 801     1378   1960   1672    -31     98     28       C  
12193  N12 LF7 B 801     1522   2080   1820    -31    103     33       N  
12194  C7  LF7 B 801     1688   2269   1989    -28    105     41       C  
12195  C8  LF7 B 801     1577   2196   1891    -33    106     60       C  
12196  C1  LF7 B 801     1891   2536   2212    -32    108     70       C  
12197  C2  LF7 B 801     1988   2649   2291    -21    107     53       C  
12198  C10 LF7 B 801     1896   2516   2188    -16    105     34       C  
12199  C9  LF7 B 801     1957   2549   2243    -18    103     24       C  
12200  C5  LF7 B 801     1940   2533   2242    -21    108     41       C  
12201  C21 LF7 B 801     2045   2658   2378    -36    110     74       C  
12202  C3  LF7 B 801     2122   2700   2439    -31    109     54       C  
12203  O4  LF7 B 801     2462   3017   2787    -34    110     56       O  
12204  C6  LF7 B 801     1938   2494   2247    -31    108     46       C  

$$$$
