@<TRIPOS>MOLECULE
/web/media/ligands/5MTP_ligand.pdb
 27 30 0 0 0
SMALL
GASTEIGER

@<TRIPOS>ATOM
      1 N          13.6120   -7.4980   50.3330 N.ar    1  UNL1       -0.2261
      2 N          14.8810   -7.1970   49.8090 N.ar    1  UNL1       -0.0638
      3 C          12.4860   -1.4130   56.3330 C.ar    1  UNL1       -0.0001
      4 C          12.7610   -2.6210   55.7160 C.ar    1  UNL1        0.0031
      5 C          12.2940   -2.8830   54.4490 C.ar    1  UNL1        0.0372
      6 C          11.4460   -2.0030   53.7920 C.ar    1  UNL1        0.1414
      7 C          11.2940   -3.4380   51.9180 C.ar    1  UNL1        0.1839
      8 C          12.6350   -4.6070   50.3740 C.ar    1  UNL1        0.0010
      9 C          13.7950   -8.3920   51.2870 C.ar    1  UNL1        0.1135
     10 C          15.7960   -9.5570   52.3980 C.3     1  UNL1        0.0437
     11 C          15.3400  -11.8400   51.3130 C.3     1  UNL1        0.0004
     12 C          17.2650   -9.6970   52.1020 C.3     1  UNL1        0.0060
     13 C          10.9240   -5.8010   51.5460 C.ar    1  UNL1        0.0429
     14 C          10.5980   -4.6320   52.2070 C.ar    1  UNL1        0.2296
     15 O           9.6470   -4.6360   53.1510 O.3     1  UNL1       -0.2833
     16 O          10.9490   -2.2720   52.5430 O.3     1  UNL1       -0.4506
     17 C          11.6510   -0.5070   55.6340 C.ar    1  UNL1       -0.0012
     18 C          11.1340   -0.7810   54.3750 C.ar    1  UNL1        0.0127
     19 C          10.3140    0.1810   53.7920 C.3     1  UNL1        0.0342
     20 C          11.9880   -5.7880   50.6480 C.ar    1  UNL1        0.0055
     21 C          12.3290   -3.4440   50.9910 C.ar    1  UNL1        0.0406
     22 C          12.3670   -6.9550   49.8890 C.3     1  UNL1        0.1557
     23 N          15.7210   -7.8810   50.4470 N.ar    1  UNL1       -0.1331
     24 C          15.0910   -8.6160   51.3540 C.ar    1  UNL1        0.1005
     25 C          17.4060  -10.5520   50.8990 C.3     1  UNL1        0.0004
     26 C          16.8590  -11.9260   51.2130 C.3     1  UNL1        0.0000
     27 C          15.0960  -10.8920   52.4600 C.3     1  UNL1        0.0060
@<TRIPOS>BOND
     1     1     9   ar
     2     2     1   ar
     3     2    23   ar
     4     4     3   ar
     5     5     4   ar
     6     6    18   ar
     7     6     5   ar
     8     7    14   ar
     9     7    16    1
    10     8    20   ar
    11     8    21   ar
    12     9    24   ar
    13    10    27    1
    14    11    27    1
    15    12    10    1
    16    13    14   ar
    17    14    15    1
    18    16     6    1
    19    17     3   ar
    20    18    17   ar
    21    19    18    1
    22    20    13   ar
    23    21     7   ar
    24    22     1    1
    25    22    20    1
    26    23    24   ar
    27    24    10    1
    28    25    26    1
    29    25    12    1
    30    26    11    1
