REMARK  Name = /web/media/ligands/5MTP_ligand.pdb
REMARK  5 active torsions:
REMARK  status: ('A' for Active; 'I' for Inactive)
REMARK    1  A    between atoms: N_1  and  C_22
REMARK    2  A    between atoms: C_6  and  O_16
REMARK    3  A    between atoms: C_7  and  O_16
REMARK    4  A    between atoms: C_10  and  C_24
REMARK    5  A    between atoms: C_20  and  C_22
REMARK                            x       y       z     vdW  Elec       q    Type
REMARK                         _______ _______ _______ _____ _____    ______ ____
ROOT
ATOM      1  C   UNL     1      11.988  -5.788  50.648  0.00  0.00    +0.006 A 
ATOM      2  C   UNL     1      10.924  -5.801  51.546  0.00  0.00    +0.043 A 
ATOM      3  C   UNL     1      10.598  -4.632  52.207  0.00  0.00    +0.230 A 
ATOM      4  O   UNL     1       9.647  -4.636  53.151  0.00  0.00    -0.283 OA
ATOM      5  C   UNL     1      11.294  -3.438  51.918  0.00  0.00    +0.184 A 
ATOM      6  C   UNL     1      12.329  -3.444  50.991  0.00  0.00    +0.041 A 
ATOM      7  C   UNL     1      12.635  -4.607  50.374  0.00  0.00    +0.001 A 
ENDROOT
BRANCH   1   8
ATOM      8  C   UNL     1      12.367  -6.955  49.889  0.00  0.00    +0.156 C 
BRANCH   8   9
ATOM      9  N   UNL     1      13.612  -7.498  50.333  0.00  0.00    -0.226 N 
ATOM     10  N   UNL     1      14.881  -7.197  49.809  0.00  0.00    -0.064 NA
ATOM     11  N   UNL     1      15.721  -7.881  50.447  0.00  0.00    -0.133 NA
ATOM     12  C   UNL     1      15.091  -8.616  51.354  0.00  0.00    +0.100 A 
ATOM     13  C   UNL     1      13.795  -8.392  51.287  0.00  0.00    +0.114 A 
BRANCH  12  14
ATOM     14  C   UNL     1      15.796  -9.557  52.398  0.00  0.00    +0.044 C 
ATOM     15  C   UNL     1      17.265  -9.697  52.102  0.00  0.00    +0.006 C 
ATOM     16  C   UNL     1      17.406 -10.552  50.899  0.00  0.00    +0.000 C 
ATOM     17  C   UNL     1      16.859 -11.926  51.213  0.00  0.00    +0.000 C 
ATOM     18  C   UNL     1      15.340 -11.840  51.313  0.00  0.00    +0.000 C 
ATOM     19  C   UNL     1      15.096 -10.892  52.460  0.00  0.00    +0.006 C 
ENDBRANCH  12  14
ENDBRANCH   8   9
ENDBRANCH   1   8
BRANCH   5  20
ATOM     20  O   UNL     1      10.949  -2.272  52.543  0.00  0.00    -0.451 OA
BRANCH  20  21
ATOM     21  C   UNL     1      11.446  -2.003  53.792  0.00  0.00    +0.141 A 
ATOM     22  C   UNL     1      12.294  -2.883  54.449  0.00  0.00    +0.037 A 
ATOM     23  C   UNL     1      12.761  -2.621  55.716  0.00  0.00    +0.003 A 
ATOM     24  C   UNL     1      12.486  -1.413  56.333  0.00  0.00    -0.000 A 
ATOM     25  C   UNL     1      11.651  -0.507  55.634  0.00  0.00    -0.001 A 
ATOM     26  C   UNL     1      11.134  -0.781  54.375  0.00  0.00    +0.013 A 
ATOM     27  C   UNL     1      10.314   0.181  53.792  0.00  0.00    +0.034 C 
ENDBRANCH  20  21
ENDBRANCH   5  20
TORSDOF 5
