/web/media/ligands/5MTP_ligand.pdb
 OpenBabel04242009293D

 27 30  0  0  0  0  0  0  0  0999 V2000
   13.6120   -7.4980   50.3330 N   0  0  0  0  0  0  0  0  0  0  0  0
   14.8810   -7.1970   49.8090 N   0  0  0  0  0  0  0  0  0  0  0  0
   12.4860   -1.4130   56.3330 C   0  0  0  0  0  0  0  0  0  0  0  0
   12.7610   -2.6210   55.7160 C   0  0  0  0  0  0  0  0  0  0  0  0
   12.2940   -2.8830   54.4490 C   0  0  0  0  0  0  0  0  0  0  0  0
   11.4460   -2.0030   53.7920 C   0  0  0  0  0  0  0  0  0  0  0  0
   11.2940   -3.4380   51.9180 C   0  0  0  0  0  0  0  0  0  0  0  0
   12.6350   -4.6070   50.3740 C   0  0  0  0  0  0  0  0  0  0  0  0
   13.7950   -8.3920   51.2870 C   0  0  0  0  0  0  0  0  0  0  0  0
   15.7960   -9.5570   52.3980 C   0  0  0  0  0  0  0  0  0  0  0  0
   15.3400  -11.8400   51.3130 C   0  0  0  0  0  0  0  0  0  0  0  0
   17.2650   -9.6970   52.1020 C   0  0  0  0  0  0  0  0  0  0  0  0
   10.9240   -5.8010   51.5460 C   0  0  0  0  0  0  0  0  0  0  0  0
   10.5980   -4.6320   52.2070 C   0  0  0  0  0  0  0  0  0  0  0  0
    9.6470   -4.6360   53.1510 O   0  0  0  0  0  0  0  0  0  0  0  0
   10.9490   -2.2720   52.5430 O   0  0  0  0  0  0  0  0  0  0  0  0
   11.6510   -0.5070   55.6340 C   0  0  0  0  0  0  0  0  0  0  0  0
   11.1340   -0.7810   54.3750 C   0  0  0  0  0  0  0  0  0  0  0  0
   10.3140    0.1810   53.7920 C   0  0  0  0  0  0  0  0  0  0  0  0
   11.9880   -5.7880   50.6480 C   0  0  0  0  0  0  0  0  0  0  0  0
   12.3290   -3.4440   50.9910 C   0  0  0  0  0  0  0  0  0  0  0  0
   12.3670   -6.9550   49.8890 C   0  0  0  0  0  0  0  0  0  0  0  0
   15.7210   -7.8810   50.4470 N   0  0  0  0  0  0  0  0  0  0  0  0
   15.0910   -8.6160   51.3540 C   0  0  0  0  0  0  0  0  0  0  0  0
   17.4060  -10.5520   50.8990 C   0  0  0  0  0  0  0  0  0  0  0  0
   16.8590  -11.9260   51.2130 C   0  0  0  0  0  0  0  0  0  0  0  0
   15.0960  -10.8920   52.4600 C   0  0  0  0  0  0  0  0  0  0  0  0
  1  9  1  0  0  0  0
  2  1  1  0  0  0  0
  2 23  2  0  0  0  0
  4  3  1  0  0  0  0
  5  4  2  0  0  0  0
  6 18  2  0  0  0  0
  6  5  1  0  0  0  0
  7 14  1  0  0  0  0
  7 16  1  0  0  0  0
  8 20  2  0  0  0  0
  8 21  1  0  0  0  0
  9 24  2  0  0  0  0
 10 27  1  0  0  0  0
 11 27  1  0  0  0  0
 12 10  1  0  0  0  0
 13 14  2  0  0  0  0
 14 15  1  0  0  0  0
 16  6  1  0  0  0  0
 17  3  2  0  0  0  0
 18 17  1  0  0  0  0
 19 18  1  0  0  0  0
 20 13  1  0  0  0  0
 21  7  2  0  0  0  0
 22  1  1  0  0  0  0
 22 20  1  0  0  0  0
 23 24  1  0  0  0  0
 24 10  1  0  0  0  0
 25 26  1  0  0  0  0
 25 12  1  0  0  0  0
 26 11  1  0  0  0  0
M  END
>  <REMARK>
 800 SITE_DESCRIPTION: binding site for residue 53K A 302                 
 800 SITE_DESCRIPTION: binding site for residue 53K B 302                 
 800 SITE_DESCRIPTION: binding site for residue 53K E 302                 
 800 SITE_DESCRIPTION: binding site for residue 53K G 302                 
 800 SITE_DESCRIPTION: binding site for residue 53K C 302                 
 800 SITE_DESCRIPTION: binding site for residue 53K D 302                 
 800 SITE_DESCRIPTION: binding site for residue 53K F 302                 
 800 SITE_DESCRIPTION: binding site for residue 53K H 302                 

>  <HET>
 53K  A 302      27                                                       
 53K  B 302      27                                                       
 53K  E 302      27                                                       
 53K  G 302      27                                                       
 53K  C 302      27                                                       
 53K  D 302      27                                                       
 53K  F 302      27                                                       
 53K  H 302      27                                                       

>  <HETNAM>
     53K 2-(2-METHYLPHENOXY)-5-[(4-PHENYL-1H-1,2,3-TRIAZOL-1-             
   2 53K  YL)METHYL]PHENOL                                                

>  <FORMUL>
  10  53K    8(C22 H19 N3 O2)                                             

>  <SITE>
   6 AC1 33 ILE A 194  THR A 196  ALA A 198  53K A 302                    
   6 AC4 31 THR B 196  ALA B 198  53K B 302  HOH B 402                    
   6 AC6 32 THR E 196  LEU E 197  ALA E 198  53K E 302                    
   7 AC8 32 53K G 302  HOH G 408  HOH G 418  HOH G 442                    
   6 AD1 30 ALA C 198  53K C 302  HOH C 408  HOH C 421                    
   6 AD4 31 THR D 196  ALA D 198  53K D 302  HOH D 410                    
   6 AD7 30 THR F 196  ALA F 198  53K F 302  HOH F 405                    
   6 AE1 32 THR H 196  LEU H 197  ALA H 198  53K H 302                    

$$$$
