/web/media/ligands/5ODX_ligand.pdb
 OpenBabel04242009293D

 36 40  0  0  1  0  0  0  0  0999 V2000
   -0.2270   33.9600   21.9980 C   0  0  0  0  0  0  0  0  0  0  0  0
   -1.3550   32.8410   23.9000 C   0  0  0  0  0  0  0  0  0  0  0  0
   -0.1240   32.1240   25.8260 C   0  0  0  0  0  0  0  0  0  0  0  0
    1.0550   32.6110   25.2340 C   0  0  0  0  0  0  0  0  0  0  0  0
    2.0950   32.3290   26.2130 C   0  0  0  0  0  0  0  0  0  0  0  0
    3.4920   32.7630   26.0670 C   0  0  0  0  0  0  0  0  0  0  0  0
    5.7560   32.8790   25.1280 C   0  0  0  0  0  0  0  0  0  0  0  0
    5.2250   30.2480   24.1980 C   0  0  1  0  0  0  0  0  0  0  0  0
    6.3950   31.0610   23.6740 C   0  0  0  0  0  0  0  0  0  0  0  0
    6.8480   31.8730   24.8360 C   0  0  0  0  0  0  0  0  0  0  0  0
    1.0430   35.8470   22.8250 C   0  0  0  0  0  0  0  0  0  0  0  0
    3.0640   36.7740   23.6770 C   0  0  0  0  0  0  0  0  0  0  0  0
    0.3020   35.7960   20.5210 C   0  0  0  0  0  0  0  0  0  0  0  0
    2.5270   38.0430   27.1410 C   0  0  0  0  0  0  0  0  0  0  0  0
    3.1930   39.1240   27.9840 C   0  0  0  0  0  0  0  0  0  0  0  0
    5.1220   39.1180   26.6700 C   0  0  0  0  0  0  0  0  0  0  0  0
    0.3630   35.1560   21.8160 N   0  0  0  0  0  0  0  0  0  0  0  0
   -0.7940   33.3910   21.1090 O   0  0  0  0  0  0  0  0  0  0  0  0
   -0.1730   33.3170   23.3160 C   0  0  0  0  0  0  0  0  0  0  0  0
    1.0200   33.2020   23.9850 C   0  0  0  0  0  0  0  0  0  0  0  0
   -1.3220   32.2370   25.1350 C   0  0  0  0  0  0  0  0  0  0  0  0
   -2.5010   32.9900   23.2370 O   0  0  0  0  0  0  0  0  0  0  0  0
    1.4930   31.7890   27.2260 N   0  0  0  0  0  0  0  0  0  0  0  0
    0.2570   31.6270   27.0240 N   0  0  0  0  0  0  0  0  0  0  0  0
    3.7920   33.6770   26.7670 O   0  0  0  0  0  0  0  0  0  0  0  0
    4.3910   32.2830   25.2130 N   0  0  0  0  0  0  0  0  0  0  0  0
    4.0350   31.1770   24.3510 C   0  0  0  0  0  0  0  0  0  0  0  0
    4.8700   29.2940   23.2820 O   0  0  0  0  0  0  0  0  0  0  0  0
    5.8760   28.3330   23.0450 C   0  0  0  0  0  0  0  0  0  0  0  0
    0.4060   36.3380   23.9450 C   0  0  0  0  0  0  0  0  0  0  0  0
    2.4310   37.2480   24.8100 C   0  0  0  0  0  0  0  0  0  0  0  0
    1.0760   37.0260   24.9170 C   0  0  0  0  0  0  0  0  0  0  0  0
    2.3860   36.0860   22.7080 C   0  0  0  0  0  0  0  0  0  0  0  0
    3.1160   37.9610   25.7990 N   0  0  0  0  0  0  0  0  0  0  0  0
    4.5780   38.9250   27.9570 O   0  0  0  0  0  0  0  0  0  0  0  0
    4.5710   38.0240   25.7430 C   0  0  0  0  0  0  0  0  0  0  0  0
  1 19  1  0  0  0  0
  2 21  2  0  0  0  0
  3 24  2  0  0  0  0
  4  3  1  0  0  0  0
  4  5  2  0  0  0  0
  5 23  1  0  0  0  0
  6  5  1  0  0  0  0
  6 25  2  0  0  0  0
  7 26  1  0  0  0  0
  8 28  1  6  0  0  0
  8 27  1  0  0  0  0
  9  8  1  0  0  0  0
  9 10  1  0  0  0  0
 10  7  1  0  0  0  0
 11 30  1  0  0  0  0
 12 31  2  0  0  0  0
 13 17  1  0  0  0  0
 14 15  1  0  0  0  0
 16 35  1  0  0  0  0
 17  1  1  0  0  0  0
 17 11  1  0  0  0  0
 18  1  2  0  0  0  0
 19  2  1  0  0  0  0
 19 20  2  0  0  0  0
 20  4  1  0  0  0  0
 21  3  1  0  0  0  0
 22  2  1  0  0  0  0
 24 23  1  0  0  0  0
 26  6  1  0  0  0  0
 27 26  1  0  0  0  0
 29 28  1  0  0  0  0
 30 32  2  0  0  0  0
 31 32  1  0  0  0  0
 31 34  1  0  0  0  0
 33 11  2  0  0  0  0
 33 12  1  0  0  0  0
 34 14  1  0  0  0  0
 35 15  1  0  0  0  0
 36 34  1  0  0  0  0
 36 16  1  0  0  0  0
M  END
>  <REMARK>
 800 SITE_DESCRIPTION: binding site for residue 9RZ A 301                 

>  <HET>
 9RZ  A 301      36                                                       

>  <HETNAM>
     9RZ 3-[(3~{S})-3-METHOXYPIPERIDIN-1-YL]CARBONYL-~{N}-                
   2 9RZ  METHYL-~{N}-(4-MORPHOLIN-4-YLPHENYL)-6-OXIDANYL-1~{H}-          
   3 9RZ  INDAZOLE-5-CARBOXAMIDE                                          

>  <FORMUL>
   2  9RZ    C26 H31 N5 O5                                                

$$$$
