@<TRIPOS>MOLECULE
1TN
   38    39     1     0     0
SMALL
bcc


@<TRIPOS>ATOM
      1 C01         -6.6110    -3.7130    32.7830 ca       302 1TN      -0.163000
      2 C02         -6.8870    -4.9300    32.1600 ca       302 1TN      -0.095000
      3 C03         -7.8100    -4.9600    31.1170 ca       302 1TN      -0.027900
      4 C04         -8.4460    -3.7770    30.7160 ca       302 1TN       0.157100
      5 C05         -8.1790    -2.5530    31.3520 ca       302 1TN      -0.160000
      6 C06         -7.2450    -2.5320    32.3930 ca       302 1TN      -0.030300
      7 C07         -6.8940    -1.2370    33.1180 c3       302 1TN      -0.043100
      8 C08         -5.9270    -0.2810    32.4290 c3       302 1TN      -0.075400
      9 C09         -4.5800    -0.8050    31.9570 c3       302 1TN      -0.082400
     10 C10         -3.5150     0.2160    31.5550 c3       302 1TN      -0.093100
     11 O13         -9.3300    -3.8370    29.6450 oh       302 1TN      -0.493100
     12 O14         -8.0940    -6.1750    30.4850 os       302 1TN      -0.233200
     13 C15         -7.4870    -6.4780    29.2640 ca       302 1TN       0.178100
     14 C16         -7.5170    -7.7820    28.7870 ca       302 1TN      -0.204200
     15 C17         -6.8860    -8.1200    27.5890 ca       302 1TN      -0.047000
     16 C18         -6.2400    -7.1280    26.8440 ca       302 1TN      -0.163000
     17 C19         -6.2140    -5.8110    27.3070 ca       302 1TN      -0.061000
     18 C20         -6.8360    -5.4900    28.5170 ca       302 1TN      -0.188000
     19 N21         -8.1990    -8.7880    29.5570 no       302 1TN       0.327200
     20 O22         -7.6320    -9.7750    29.8530 o        302 1TN      -0.207500
     21 O23         -9.3070    -8.5960    29.8820 o        302 1TN      -0.207500
     22 H01         -5.8830    -3.6830    33.5940 ha       302 1TN       0.140000
     23 H02         -6.3880    -5.8430    32.4840 ha       302 1TN       0.146000
     24 H03         -8.6880    -1.6410    31.0410 ha       302 1TN       0.158000
     25 H04         -6.3700    -1.5580    34.0180 hc       302 1TN       0.053200
     26 H05         -7.8240    -0.6950    33.2870 hc       302 1TN       0.053200
     27 H06         -5.6690     0.4350    33.2090 hc       302 1TN       0.046200
     28 H07         -6.4400     0.1160    31.5530 hc       302 1TN       0.046200
     29 H08         -4.8040    -1.3420    31.0350 hc       302 1TN       0.039700
     30 H09         -4.1640    -1.4070    32.7650 hc       302 1TN       0.039700
     31 H10         -2.6090    -0.3070    31.2470 hc       302 1TN       0.034033
     32 H11         -3.8850     0.8200    30.7270 hc       302 1TN       0.034033
     33 H12         -3.2900     0.8610    32.4040 hc       302 1TN       0.034033
     34 H13         -9.6040    -4.7460    29.5060 ho       302 1TN       0.457000
     35 H14         -6.8970    -9.1510    27.2360 ha       302 1TN       0.171000
     36 H15         -5.7560    -7.3830    25.9010 ha       302 1TN       0.151000
     37 H16         -5.7110    -5.0370    26.7280 ha       302 1TN       0.147000
     38 H17         -6.8140    -4.4630    28.8810 ha       302 1TN       0.163000
@<TRIPOS>BOND
     1     1     2 ar  
     2     1     6 ar  
     3     1    22 1   
     4     2     3 ar  
     5     2    23 1   
     6     3     4 ar  
     7     3    12 1   
     8     4     5 ar  
     9     4    11 1   
    10     5     6 ar  
    11     5    24 1   
    12     6     7 1   
    13     7     8 1   
    14     7    25 1   
    15     7    26 1   
    16     8     9 1   
    17     8    27 1   
    18     8    28 1   
    19     9    10 1   
    20     9    29 1   
    21     9    30 1   
    22    10    31 1   
    23    10    32 1   
    24    10    33 1   
    25    11    34 1   
    26    12    13 1   
    27    13    14 ar  
    28    13    18 ar  
    29    14    15 ar  
    30    14    19 1   
    31    15    16 ar  
    32    15    35 1   
    33    16    17 ar  
    34    16    36 1   
    35    17    18 ar  
    36    17    37 1   
    37    18    38 1   
    38    19    20 1   
    39    19    21 1   
@<TRIPOS>SUBSTRUCTURE
     1 1TN         1 TEMP              0 ****  ****    0 ROOT
