@<TRIPOS>MOLECULE
1TN
   36    37     1     0     0
SMALL
bcc


@<TRIPOS>ATOM
      1 H13         -9.6040    -4.7460    29.5060 ho         0 1TN       0.458000
      2 H15         -5.7110    -5.0370    26.7280 ha         0 1TN       0.147000
      3 H06         -5.8830    -3.6830    33.5940 ha         0 1TN       0.140000
      4 H12         -4.3800    -1.8750    31.9070 ha         0 1TN       0.118000
      5 H02         -3.8850     0.8200    30.7270 hc         0 1TN       0.042367
      6 H01         -2.6090    -0.3070    31.2470 hc         0 1TN       0.042367
      7 H05         -6.8140    -4.4630    28.8810 ha         0 1TN       0.163000
      8 H04         -6.8970    -9.1510    27.2360 ha         0 1TN       0.171000
      9 H03         -3.2900     0.8610    32.4040 hc         0 1TN       0.042367
     10 H11         -6.1970     0.7640    32.2770 ha         0 1TN       0.128000
     11 H09         -6.3700    -1.5580    34.0180 hc         0 1TN       0.059200
     12 H08         -8.6880    -1.6410    31.0410 ha         0 1TN       0.158000
     13 H07         -6.3880    -5.8430    32.4840 ha         0 1TN       0.146000
     14 H10         -7.8240    -0.6950    33.2870 hc         0 1TN       0.059200
     15 H14         -5.7560    -7.3830    25.9010 ha         0 1TN       0.151000
     16 C           -3.5150     0.2160    31.5550 c3         0 1TN      -0.064900
     17 C1          -7.4870    -6.4780    29.2640 ca         0 1TN       0.177100
     18 C2          -6.8860    -8.1200    27.5890 ca         0 1TN      -0.048000
     19 C3          -6.8360    -5.4900    28.5170 ca         0 1TN      -0.188000
     20 C4          -6.6110    -3.7130    32.7830 ca         0 1TN      -0.160000
     21 C5          -6.8870    -4.9300    32.1600 ca         0 1TN      -0.095000
     22 C6          -7.8100    -4.9600    31.1170 ca         0 1TN      -0.026900
     23 C7          -8.4460    -3.7770    30.7160 ca         0 1TN       0.157100
     24 C8          -8.1790    -2.5530    31.3520 ca         0 1TN      -0.160000
     25 C9          -7.2450    -2.5320    32.3930 ca         0 1TN      -0.027300
     26 C10         -6.8940    -1.2370    33.1180 c3         0 1TN      -0.009900
     27 C11         -5.9270    -0.2810    32.4290 c2         0 1TN      -0.174200
     28 C12         -4.5800    -0.8050    31.9570 c2         0 1TN      -0.164200
     29 O           -9.3300    -3.8370    29.6450 oh         0 1TN      -0.493100
     30 O1          -8.0940    -6.1750    30.4850 os         0 1TN      -0.233200
     31 C13         -7.5170    -7.7820    28.7870 ca         0 1TN      -0.204200
     32 C14         -6.2400    -7.1280    26.8440 ca         0 1TN      -0.163000
     33 C15         -6.2140    -5.8110    27.3070 ca         0 1TN      -0.061000
     34 N           -8.1990    -8.7880    29.5570 no         0 1TN       0.327200
     35 O2          -7.6320    -9.7750    29.8530 o          0 1TN      -0.207500
     36 O3          -9.3070    -8.5960    29.8820 o          0 1TN      -0.207500
@<TRIPOS>BOND
     1     1    29 1   
     2     2    33 1   
     3     3    20 1   
     4     4    28 1   
     5     5    16 1   
     6     6    16 1   
     7     7    19 1   
     8     8    18 1   
     9     9    16 1   
    10    10    27 1   
    11    11    26 1   
    12    12    24 1   
    13    13    21 1   
    14    14    26 1   
    15    15    32 1   
    16    16    28 1   
    17    17    19 ar  
    18    17    30 1   
    19    17    31 ar  
    20    18    31 ar  
    21    18    32 ar  
    22    19    33 ar  
    23    20    21 ar  
    24    20    25 ar  
    25    21    22 ar  
    26    22    23 ar  
    27    22    30 1   
    28    23    24 ar  
    29    23    29 1   
    30    24    25 ar  
    31    25    26 1   
    32    26    27 1   
    33    27    28 2   
    34    31    34 1   
    35    32    33 ar  
    36    34    35 1   
    37    34    36 1   
@<TRIPOS>SUBSTRUCTURE
     1 1TN         1 TEMP              0 ****  ****    0 ROOT
