@<TRIPOS>MOLECULE
2GG
   44    46     1     0     0
SMALL
bcc


@<TRIPOS>ATOM
      1 H14         32.8580    10.7600    24.9360 ha         0 2GG       0.163000
      2 H11         34.0560     6.4080    29.9770 hc         0 2GG       0.043367
      3 H02         35.9780     5.6530    20.9660 h1         0 2GG       0.047033
      4 H12         33.5790     7.0740    31.5570 hc         0 2GG       0.043367
      5 H13         33.8910     5.3300    31.3830 hc         0 2GG       0.043367
      6 H03         34.8300     4.5700    21.7900 h1         0 2GG       0.047033
      7 H01         34.2780     6.1400    21.1610 h1         0 2GG       0.047033
      8 H04         32.7560     6.2970    22.3260 ha         0 2GG       0.148000
      9 H07         34.1110     8.3760    26.6650 ha         0 2GG       0.144000
     10 H16         28.6920    11.8350    22.4350 ha         0 2GG       0.162000
     11 H05         31.0470     7.3310    23.8250 ha         0 2GG       0.144000
     12 H17         28.0840    10.7660    25.3900 ho         0 2GG       0.445000
     13 H15         30.1970    13.5500    21.5080 ho         0 2GG       0.430000
     14 H06         35.8170     7.3520    25.2020 ha         0 2GG       0.148000
     15 H10         31.4160     5.9940    31.4530 h1         0 2GG       0.062700
     16 H09         31.9050     5.0220    30.0410 h1         0 2GG       0.062700
     17 H08         31.1860     7.9190    30.0270 hn         0 2GG       0.319500
     18 C           35.1100     5.6100    21.6240 c3         0 2GG       0.111700
     19 O           35.4350     6.2380    22.9030 os         0 2GG      -0.324900
     20 C1          34.4180     6.7760    23.6490 ca         0 2GG       0.139100
     21 C2          33.0590     6.7530    23.2680 ca         0 2GG      -0.183500
     22 C3          32.0940     7.3320    24.1290 ca         0 2GG      -0.067000
     23 C4          34.7730     7.3510    24.8900 ca         0 2GG      -0.183500
     24 C5          33.8030     7.9190    25.7240 ca         0 2GG      -0.067000
     25 C6          32.4480     7.9140    25.3780 ca         0 2GG      -0.076000
     26 C7          31.4680     8.5170    26.2370 cc         0 2GG      -0.209600
     27 C8          31.0410     8.0900    27.5120 cc         0 2GG       0.282800
     28 C9          31.5650     6.9080    28.2960 c          0 2GG       0.599600
     29 O1          32.0520     5.9280    27.7380 o          0 2GG      -0.584100
     30 N           31.5370     7.0580    29.6330 n          0 2GG      -0.555900
     31 C10         32.0110     5.9860    30.5390 c3         0 2GG       0.086000
     32 C11         33.4920     6.2160    30.8900 c3         0 2GG      -0.119100
     33 N1          30.0930     8.8920    28.0040 nd         0 2GG      -0.330300
     34 C12         30.7040     9.6700    25.9840 cd         0 2GG       0.334200
     35 C13         30.7220    10.4920    24.8390 ca         0 2GG      -0.257500
     36 C14         31.9450    11.0010    24.3910 ca         0 2GG      -0.028000
     37 C15         32.0160    11.8130    23.2580 ca         0 2GG      -0.054600
     38 Cl          33.5480    12.4520    22.7020 cl         0 2GG      -0.060400
     39 C16         30.8300    12.1310    22.5810 ca         0 2GG       0.191100
     40 O2          30.8780    12.8740    21.4710 oh         0 2GG      -0.474100
     41 C17         29.5990    11.6240    23.0020 ca         0 2GG      -0.259000
     42 C18         29.5450    10.8400    24.1630 ca         0 2GG       0.217100
     43 O3          28.3380    10.3530    24.5620 oh         0 2GG      -0.487100
     44 O4          29.8850     9.8740    27.0470 os         0 2GG      -0.138100
@<TRIPOS>BOND
     1     1    36 1   
     2     2    32 1   
     3     3    18 1   
     4     4    32 1   
     5     5    32 1   
     6     6    18 1   
     7     7    18 1   
     8     8    21 1   
     9     9    24 1   
    10    10    41 1   
    11    11    22 1   
    12    12    43 1   
    13    13    40 1   
    14    14    23 1   
    15    15    31 1   
    16    16    31 1   
    17    17    30 1   
    18    18    19 1   
    19    19    20 1   
    20    20    21 ar  
    21    20    23 ar  
    22    21    22 ar  
    23    22    25 ar  
    24    23    24 ar  
    25    24    25 ar  
    26    25    26 1   
    27    26    27 1   
    28    26    34 2   
    29    27    28 1   
    30    27    33 2   
    31    28    29 2   
    32    28    30 1   
    33    30    31 1   
    34    31    32 1   
    35    33    44 1   
    36    34    35 1   
    37    34    44 1   
    38    35    36 ar  
    39    35    42 ar  
    40    36    37 ar  
    41    37    38 1   
    42    37    39 ar  
    43    39    40 1   
    44    39    41 ar  
    45    41    42 ar  
    46    42    43 1   
@<TRIPOS>SUBSTRUCTURE
     1 2GG         1 TEMP              0 ****  ****    0 ROOT
