@<TRIPOS>MOLECULE
2EQ
   56    59     1     0     0
SMALL
bcc


@<TRIPOS>ATOM
      1 CL1          1.0440   -12.4460    27.2890 cl       301 2EQ      -0.085400
      2 C1          -2.9240   -11.0550    25.7480 ca       301 2EQ       0.213100
      3 O1          -4.1080   -10.6630    25.2740 oh       301 2EQ      -0.483100
      4 C2          -2.8270   -11.7890    26.9080 ca       301 2EQ      -0.201000
      5 N2          -2.2040    -9.1120    21.9420 nc       301 2EQ      -0.339300
      6 O2          -1.4780   -12.8970    28.5050 oh       301 2EQ      -0.480100
      7 C3          -1.5900   -12.2070    27.3740 ca       301 2EQ       0.193100
      8 N3          -0.5670    -7.0800    20.5860 n        301 2EQ      -0.550900
      9 O3          -0.3360    -6.1340    22.5820 o        301 2EQ      -0.576100
     10 C4          -0.4690   -11.8770    26.6680 ca       301 2EQ      -0.113600
     11 N4           2.4930    -5.0660    27.7340 n3       301 2EQ      -0.724600
     12 O4           4.2270    -2.8810    27.6630 os       301 2EQ      -0.416600
     13 C5          -1.7720   -10.7400    25.0500 ca       301 2EQ      -0.261500
     14 O5          -2.4660   -10.0620    22.7120 os       301 2EQ      -0.134100
     15 C6          -0.5290   -11.1430    25.5290 ca       301 2EQ      -0.016000
     16 C7          -1.8080    -9.9230    23.8450 cc       301 2EQ       0.336200
     17 C8          -1.3620    -8.2430    22.4490 cd       301 2EQ       0.289800
     18 C9          -1.0520    -8.7590    23.7460 cd       301 2EQ      -0.216600
     19 C10         -0.7410    -7.0290    21.9020 c        301 2EQ       0.592600
     20 C11          0.0280    -6.0540    19.7580 c3       301 2EQ       0.081000
     21 C12         -0.4740    -6.4040    18.3610 c3       301 2EQ      -0.122100
     22 C13         -0.1740    -8.1700    24.7710 ca       301 2EQ      -0.034000
     23 C14         -0.7370    -7.6120    25.9080 ca       301 2EQ      -0.103500
     24 C15          0.0540    -7.0950    26.8910 ca       301 2EQ      -0.122000
     25 C16          1.4110    -7.0910    26.7610 ca       301 2EQ      -0.072300
     26 C17          1.9790    -7.6390    25.6390 ca       301 2EQ      -0.122000
     27 C18          1.2030    -8.1750    24.6410 ca       301 2EQ      -0.103500
     28 C19          2.2820    -6.5080    27.8440 c3       301 2EQ       0.212100
     29 C20          3.2180    -4.6110    28.9200 c3       301 2EQ       0.129300
     30 C21          3.4740    -3.1110    28.8390 c3       301 2EQ       0.126900
     31 C22          3.5860    -3.2770    26.4570 c3       301 2EQ       0.126900
     32 C23          3.2770    -4.7720    26.5270 c3       301 2EQ       0.129300
     33 H01         -4.4340   -11.3140    24.6490 ho       301 2EQ       0.444000
     34 H02         -3.7290   -12.0440    27.4640 ha       301 2EQ       0.179000
     35 H03         -1.0510   -13.7380    28.3260 ho       301 2EQ       0.436000
     36 H04         -0.8810    -7.9180    20.1170 hn       301 2EQ       0.316500
     37 H05          0.3830   -10.8730    24.9970 ha       301 2EQ       0.164000
     38 H06          1.1150    -6.0240    19.8280 h1       301 2EQ       0.063700
     39 H07         -0.3100    -5.0620    20.0590 h1       301 2EQ       0.063700
     40 H08         -1.3510    -5.7990    18.1290 hc       301 2EQ       0.044033
     41 H09          0.3100    -6.2020    17.6310 hc       301 2EQ       0.044033
     42 H10         -0.7420    -7.4600    18.3240 hc       301 2EQ       0.044033
     43 H11         -1.8210    -7.5860    26.0170 ha       301 2EQ       0.141500
     44 H12         -0.4030    -6.6810    27.7900 ha       301 2EQ       0.143500
     45 H13          3.0640    -7.6490    25.5380 ha       301 2EQ       0.143500
     46 H14          1.6690    -8.6010    23.7530 ha       301 2EQ       0.141500
     47 H15          1.7620    -6.6760    28.7870 h1       301 2EQ       0.042200
     48 H16          3.2540    -7.0000    27.8040 h1       301 2EQ       0.042200
     49 H17          4.1740    -5.1320    28.9730 h1       301 2EQ       0.043450
     50 H18          2.6270    -4.8280    29.8090 h1       301 2EQ       0.043450
     51 H19          4.0130    -2.7610    29.7190 h1       301 2EQ       0.054200
     52 H20          2.5280    -2.5720    28.7900 h1       301 2EQ       0.054200
     53 H21          4.2400    -3.0750    25.6090 h1       301 2EQ       0.054200
     54 H22          2.6590    -2.7170    26.3340 h1       301 2EQ       0.054200
     55 H23          4.2130    -5.3300    26.5630 h1       301 2EQ       0.043450
     56 H24          2.7070    -5.0650    25.6450 h1       301 2EQ       0.043450
@<TRIPOS>BOND
     1     1    10 1   
     2     2     3 1   
     3     2     4 ar  
     4     2    13 ar  
     5     3    33 1   
     6     4     7 ar  
     7     4    34 1   
     8     5    14 1   
     9     5    17 2   
    10     6     7 1   
    11     6    35 1   
    12     7    10 ar  
    13     8    19 1   
    14     8    20 1   
    15     8    36 1   
    16     9    19 2   
    17    10    15 ar  
    18    11    28 1   
    19    11    29 1   
    20    11    32 1   
    21    12    30 1   
    22    12    31 1   
    23    13    15 ar  
    24    13    16 1   
    25    14    16 1   
    26    15    37 1   
    27    16    18 2   
    28    17    18 1   
    29    17    19 1   
    30    18    22 1   
    31    20    21 1   
    32    20    38 1   
    33    20    39 1   
    34    21    40 1   
    35    21    41 1   
    36    21    42 1   
    37    22    23 ar  
    38    22    27 ar  
    39    23    24 ar  
    40    23    43 1   
    41    24    25 ar  
    42    24    44 1   
    43    25    26 ar  
    44    25    28 1   
    45    26    27 ar  
    46    26    45 1   
    47    27    46 1   
    48    28    47 1   
    49    28    48 1   
    50    29    30 1   
    51    29    49 1   
    52    29    50 1   
    53    30    51 1   
    54    30    52 1   
    55    31    32 1   
    56    31    53 1   
    57    31    54 1   
    58    32    55 1   
    59    32    56 1   
@<TRIPOS>SUBSTRUCTURE
     1 2EQ         1 TEMP              0 ****  ****    0 ROOT
