@<TRIPOS>MOLECULE
2EQ
   56    59     1     0     0
SMALL
bcc


@<TRIPOS>ATOM
      1 H18         -1.3510    -5.7990    18.1290 hc         0 2EQ       0.044033
      2 H24         -4.4340   -11.3140    24.6490 ho         0 2EQ       0.444000
      3 H23         -3.7290   -12.0440    27.4640 ha         0 2EQ       0.179000
      4 H21          0.3830   -10.8730    24.9970 ha         0 2EQ       0.164000
      5 H12          1.6690    -8.6010    23.7530 ha         0 2EQ       0.141500
      6 H08          2.7070    -5.0650    25.6450 h1         0 2EQ       0.043450
      7 H02          4.1710    -5.1360    28.9840 h1         0 2EQ       0.043450
      8 H22         -1.0510   -13.7380    28.3260 ho         0 2EQ       0.436000
      9 H09          1.7620    -6.6760    28.7870 h1         0 2EQ       0.042200
     10 H01          2.6180    -4.8210    29.8050 h1         0 2EQ       0.043450
     11 H07          4.2130    -5.3300    26.5630 h1         0 2EQ       0.043450
     12 H06          2.6590    -2.7170    26.3340 h1         0 2EQ       0.054200
     13 H17         -0.3100    -5.0620    20.0590 h1         0 2EQ       0.063700
     14 H05          4.2400    -3.0750    25.6090 h1         0 2EQ       0.054200
     15 H11          3.0640    -7.6490    25.5380 ha         0 2EQ       0.143500
     16 H03          4.0130    -2.7610    29.7190 h1         0 2EQ       0.054200
     17 H10          3.2540    -7.0000    27.8040 h1         0 2EQ       0.042200
     18 H13         -0.4030    -6.6810    27.7900 ha         0 2EQ       0.143500
     19 H16          1.1150    -6.0240    19.8280 h1         0 2EQ       0.063700
     20 H15         -0.8810    -7.9180    20.1170 hn         0 2EQ       0.316500
     21 H14         -1.8210    -7.5860    26.0170 ha         0 2EQ       0.141500
     22 H04          2.5280    -2.5720    28.7900 h1         0 2EQ       0.054200
     23 H20         -0.7420    -7.4600    18.3240 hc         0 2EQ       0.044033
     24 H19          0.3100    -6.2020    17.6310 hc         0 2EQ       0.044033
     25 C            3.2180    -4.6110    28.9200 c3         0 2EQ       0.129300
     26 C1           3.4740    -3.1110    28.8390 c3         0 2EQ       0.126900
     27 O            4.2270    -2.8810    27.6630 os         0 2EQ      -0.416600
     28 C2           3.5860    -3.2770    26.4570 c3         0 2EQ       0.126900
     29 C3           3.2770    -4.7720    26.5270 c3         0 2EQ       0.129300
     30 N            2.4930    -5.0660    27.7340 n3         0 2EQ      -0.724600
     31 C4           2.2820    -6.5080    27.8440 c3         0 2EQ       0.212100
     32 C5           1.4110    -7.0910    26.7610 ca         0 2EQ      -0.072300
     33 C6           1.9790    -7.6390    25.6390 ca         0 2EQ      -0.122000
     34 C7           1.2030    -8.1750    24.6410 ca         0 2EQ      -0.103500
     35 C8           0.0540    -7.0950    26.8910 ca         0 2EQ      -0.122000
     36 C9          -0.7370    -7.6120    25.9080 ca         0 2EQ      -0.103500
     37 C10         -0.1740    -8.1700    24.7710 ca         0 2EQ      -0.034000
     38 C11         -1.0520    -8.7590    23.7460 cc         0 2EQ      -0.216600
     39 C12         -1.3620    -8.2430    22.4490 cc         0 2EQ       0.289800
     40 C13         -0.7410    -7.0290    21.9020 c          0 2EQ       0.592600
     41 O1          -0.3360    -6.1340    22.5820 o          0 2EQ      -0.576100
     42 N1          -0.5670    -7.0800    20.5860 n          0 2EQ      -0.550900
     43 C14          0.0280    -6.0540    19.7580 c3         0 2EQ       0.081000
     44 C15         -0.4740    -6.4040    18.3610 c3         0 2EQ      -0.122100
     45 N2          -2.2040    -9.1120    21.9420 nd         0 2EQ      -0.339300
     46 O2          -2.4660   -10.0620    22.7120 os         0 2EQ      -0.134100
     47 C16         -1.8080    -9.9230    23.8450 cd         0 2EQ       0.336200
     48 C17         -1.7720   -10.7400    25.0500 ca         0 2EQ      -0.261500
     49 C18         -0.5290   -11.1430    25.5290 ca         0 2EQ      -0.016000
     50 C19         -0.4690   -11.8770    26.6680 ca         0 2EQ      -0.113600
     51 Cl           1.0440   -12.4460    27.2890 cl         0 2EQ      -0.085400
     52 C20         -1.5900   -12.2070    27.3740 ca         0 2EQ       0.193100
     53 O3          -1.4780   -12.8970    28.5050 oh         0 2EQ      -0.480100
     54 C21         -2.8270   -11.7890    26.9080 ca         0 2EQ      -0.201000
     55 C22         -2.9240   -11.0550    25.7480 ca         0 2EQ       0.213100
     56 O4          -4.1080   -10.6630    25.2740 oh         0 2EQ      -0.483100
@<TRIPOS>BOND
     1     1    44 1   
     2     2    56 1   
     3     3    54 1   
     4     4    49 1   
     5     5    34 1   
     6     6    29 1   
     7     7    25 1   
     8     8    53 1   
     9     9    31 1   
    10    10    25 1   
    11    11    29 1   
    12    12    28 1   
    13    13    43 1   
    14    14    28 1   
    15    15    33 1   
    16    16    26 1   
    17    17    31 1   
    18    18    35 1   
    19    19    43 1   
    20    20    42 1   
    21    21    36 1   
    22    22    26 1   
    23    23    44 1   
    24    24    44 1   
    25    25    26 1   
    26    25    30 1   
    27    26    27 1   
    28    27    28 1   
    29    28    29 1   
    30    29    30 1   
    31    30    31 1   
    32    31    32 1   
    33    32    33 ar  
    34    32    35 ar  
    35    33    34 ar  
    36    34    37 ar  
    37    35    36 ar  
    38    36    37 ar  
    39    37    38 1   
    40    38    39 1   
    41    38    47 2   
    42    39    40 1   
    43    39    45 2   
    44    40    41 2   
    45    40    42 1   
    46    42    43 1   
    47    43    44 1   
    48    45    46 1   
    49    46    47 1   
    50    47    48 1   
    51    48    49 ar  
    52    48    55 ar  
    53    49    50 ar  
    54    50    51 1   
    55    50    52 ar  
    56    52    53 1   
    57    52    54 ar  
    58    54    55 ar  
    59    55    56 1   
@<TRIPOS>SUBSTRUCTURE
     1 2EQ         1 TEMP              0 ****  ****    0 ROOT
