@<TRIPOS>MOLECULE
BJM
   52    56     1     0     0
SMALL
bcc


@<TRIPOS>ATOM
      1 H08         49.5490    49.3020    33.7430 hc         0 BJM       0.048200
      2 H10         46.7000    51.9390    31.8000 hc         0 BJM       0.043200
      3 H12         46.8320    48.6970    41.0590 hc         0 BJM       0.095700
      4 H09         48.8050    48.8610    32.1870 hc         0 BJM       0.048200
      5 H14         48.5850    48.1770    38.5060 hc         0 BJM       0.082700
      6 H13         47.4440    47.1510    38.5920 hc         0 BJM       0.082700
      7 H17         50.7580    51.1360    39.1680 h1         0 BJM       0.054200
      8 H16         47.6640    50.7150    41.3520 hc         0 BJM       0.059700
      9 H11         47.1690    50.3820    31.0660 hc         0 BJM       0.043200
     10 H15         48.9610    49.5800    41.3110 hc         0 BJM       0.059700
     11 H21         44.7510    50.2340    34.6560 hc         0 BJM       0.054200
     12 H20         49.9940    50.4510    37.1750 hn         0 BJM       0.354300
     13 H19         49.7510    48.9170    37.7300 hn         0 BJM       0.354300
     14 H22         45.1660    51.8560    34.0040 hc         0 BJM       0.054200
     15 H26         45.7560    53.0450    35.4660 hn         0 BJM       0.360800
     16 H25         46.5280    53.3860    36.8840 hn         0 BJM       0.360800
     17 H24         48.7790    51.6910    34.8710 hc         0 BJM       0.054200
     18 H27         47.7100    46.7890    33.4190 ho         0 BJM       0.399000
     19 H23         47.4920    52.5980    33.9910 hc         0 BJM       0.054200
     20 H29         48.7790    51.7680    39.6750 h1         0 BJM       0.067700
     21 H28         45.7730    49.6990    38.3310 h1         0 BJM       0.098700
     22 H18         50.4320    49.4570    39.8090 h1         0 BJM       0.054200
     23 H01         45.6600    50.7130    36.8340 h1         0 BJM       0.069700
     24 H02         46.5430    48.8500    35.8450 hc         0 BJM       0.058200
     25 H03         48.2460    49.4120    35.7670 hc         0 BJM       0.058200
     26 H04         44.9310    50.2790    32.0990 hc         0 BJM       0.053700
     27 H05         49.1320    51.3780    32.4270 hc         0 BJM       0.053700
     28 H06         46.2820    48.1930    32.1640 hc         0 BJM       0.048200
     29 H07         45.3330    48.2960    33.6810 hc         0 BJM       0.048200
     30 C           46.7800    50.8510    35.0450 c3         0 BJM      -0.034000
     31 C1          46.4170    51.4030    36.4610 c3         0 BJM       0.127500
     32 C2          47.2850    49.3860    35.2530 c3         0 BJM      -0.065400
     33 C3          47.4540    48.6520    33.9130 c3         0 BJM       0.152800
     34 C4          45.7880    50.1900    32.7670 c3         0 BJM      -0.059200
     35 C5          48.2770    50.8830    32.8870 c3         0 BJM      -0.059200
     36 C6          46.1430    48.7360    33.0990 c3         0 BJM      -0.100400
     37 C7          48.6420    49.3610    33.1420 c3         0 BJM      -0.100400
     38 C8          46.9770    50.9040    32.0030 c3         0 BJM      -0.073400
     39 C9          47.2230    49.0070    40.0900 cx         0 BJM      -0.139700
     40 C10         47.5640    48.1940    38.8860 cx         0 BJM      -0.123400
     41 C11         48.1810    50.0200    40.6900 c3         0 BJM      -0.064400
     42 C12         50.1390    50.2410    39.1100 c3         0 BJM       0.153800
     43 N           50.3000    49.7570    37.8420 n3         0 BJM      -0.896800
     44 C13         45.5100    50.8320    34.1520 c3         0 BJM      -0.067900
     45 C14         47.8880    51.6150    34.2470 c3         0 BJM      -0.067900
     46 C15         47.6520    51.4450    37.3980 c          0 BJM       0.621100
     47 N1          45.8830    52.7570    36.4260 n3         0 BJM      -0.892800
     48 N2          47.7030    50.5270    38.3750 n          0 BJM      -0.436800
     49 O           48.5390    52.2840    37.2570 o          0 BJM      -0.637100
     50 O1          47.5470    47.2890    34.2220 oh         0 BJM      -0.594800
     51 C16         46.7350    49.4420    38.7750 cx         0 BJM       0.032700
     52 C17         48.6860    50.7000    39.4800 c3         0 BJM       0.049700
@<TRIPOS>BOND
     1     1    37 1   
     2     2    38 1   
     3     3    39 1   
     4     4    37 1   
     5     5    40 1   
     6     6    40 1   
     7     7    42 1   
     8     8    41 1   
     9     9    38 1   
    10    10    41 1   
    11    11    44 1   
    12    12    43 1   
    13    13    43 1   
    14    14    44 1   
    15    15    47 1   
    16    16    47 1   
    17    17    45 1   
    18    18    50 1   
    19    19    45 1   
    20    20    52 1   
    21    21    51 1   
    22    22    42 1   
    23    23    31 1   
    24    24    32 1   
    25    25    32 1   
    26    26    34 1   
    27    27    35 1   
    28    28    36 1   
    29    29    36 1   
    30    30    31 1   
    31    30    32 1   
    32    30    44 1   
    33    30    45 1   
    34    31    46 1   
    35    31    47 1   
    36    32    33 1   
    37    33    36 1   
    38    33    37 1   
    39    33    50 1   
    40    34    36 1   
    41    34    38 1   
    42    34    44 1   
    43    35    37 1   
    44    35    38 1   
    45    35    45 1   
    46    39    40 1   
    47    39    41 1   
    48    39    51 1   
    49    40    51 1   
    50    41    52 1   
    51    42    43 1   
    52    42    52 1   
    53    46    48 1   
    54    46    49 2   
    55    48    51 1   
    56    48    52 1   
@<TRIPOS>SUBSTRUCTURE
     1 BJM         1 TEMP              0 ****  ****    0 ROOT
