@<TRIPOS>MOLECULE
BJM
   52    56     1     0     0
SMALL
bcc


@<TRIPOS>ATOM
      1 C1          46.7800    50.8510    35.0450 c3         1 BJM      -0.034000
      2 C2          46.4170    51.4030    36.4610 c3         1 BJM       0.127500
      3 C3          47.2850    49.3860    35.2530 c3         1 BJM      -0.065400
      4 C4          45.5100    50.8320    34.1520 c3         1 BJM      -0.067900
      5 C5          47.8880    51.6150    34.2470 c3         1 BJM      -0.067900
      6 C6          47.6520    51.4450    37.3980 c          1 BJM       0.621100
      7 N7          45.8830    52.7570    36.4260 n3         1 BJM      -0.892800
      8 C8          47.4540    48.6520    33.9130 c3         1 BJM       0.152800
      9 C9          45.7880    50.1900    32.7670 c3         1 BJM      -0.059200
     10 C10         48.2770    50.8830    32.8870 c3         1 BJM      -0.059200
     11 N11         47.7030    50.5270    38.3750 n          1 BJM      -0.436800
     12 O12         48.5390    52.2840    37.2570 o          1 BJM      -0.637100
     13 C13         46.1430    48.7360    33.0990 c3         1 BJM      -0.100400
     14 C14         48.6420    49.3610    33.1420 c3         1 BJM      -0.100400
     15 O15         47.5470    47.2890    34.2220 oh         1 BJM      -0.594800
     16 C16         46.9770    50.9040    32.0030 c3         1 BJM      -0.073400
     17 C17         46.7350    49.4420    38.7750 cx         1 BJM       0.032700
     18 C18         48.6860    50.7000    39.4800 c3         1 BJM       0.049700
     19 C19         47.2230    49.0070    40.0900 cx         1 BJM      -0.139700
     20 C20         47.5640    48.1940    38.8860 cx         1 BJM      -0.123400
     21 C21         48.1810    50.0200    40.6900 c3         1 BJM      -0.064400
     22 C22         50.1390    50.2410    39.1100 c3         1 BJM       0.153800
     23 N23         50.3000    49.7570    37.8420 n3         1 BJM      -0.896800
     24 H01         45.6600    50.7130    36.8340 h1         1 BJM       0.069700
     25 H02         46.5430    48.8500    35.8450 hc         1 BJM       0.058200
     26 H03         48.2460    49.4120    35.7670 hc         1 BJM       0.058200
     27 H04         45.1950    51.8630    33.9900 hc         1 BJM       0.054200
     28 H05         44.7320    50.2600    34.6570 hc         1 BJM       0.054200
     29 H06         48.7810    51.6480    34.8710 hc         1 BJM       0.054200
     30 H07         47.5240    52.6160    34.0140 hc         1 BJM       0.054200
     31 H08         46.5280    53.3860    36.8840 hn         1 BJM       0.360800
     32 H09         45.7560    53.0450    35.4660 hn         1 BJM       0.360800
     33 H10         44.9310    50.2790    32.0990 hc         1 BJM       0.053700
     34 H11         49.1320    51.3780    32.4270 hc         1 BJM       0.053700
     35 H12         45.3370    48.3130    33.6990 hc         1 BJM       0.048200
     36 H13         46.2640    48.1780    32.1700 hc         1 BJM       0.048200
     37 H14         48.8020    48.8620    32.1860 hc         1 BJM       0.048200
     38 H15         49.5510    49.3000    33.7400 hc         1 BJM       0.048200
     39 H16         47.7100    46.7890    33.4190 ho         1 BJM       0.399000
     40 H17         46.7000    51.9390    31.8000 hc         1 BJM       0.043200
     41 H18         47.1690    50.3820    31.0660 hc         1 BJM       0.043200
     42 H19         45.7730    49.6990    38.3310 h1         1 BJM       0.098700
     43 H20         48.7790    51.7680    39.6750 h1         1 BJM       0.067700
     44 H21         46.8320    48.6970    41.0590 hc         1 BJM       0.095700
     45 H22         47.4440    47.1510    38.5920 hc         1 BJM       0.082700
     46 H23         48.5850    48.1770    38.5060 hc         1 BJM       0.082700
     47 H24         48.9610    49.5800    41.3110 hc         1 BJM       0.059700
     48 H25         47.6640    50.7150    41.3520 hc         1 BJM       0.059700
     49 H26         50.3680    49.4100    39.7780 h1         1 BJM       0.054200
     50 H27         50.8030    51.0970    39.2300 h1         1 BJM       0.054200
     51 H28         49.7510    48.9170    37.7300 hn         1 BJM       0.354300
     52 H29         49.9940    50.4510    37.1750 hn         1 BJM       0.354300
@<TRIPOS>BOND
     1     1     2 1   
     2     1     3 1   
     3     1     4 1   
     4     1     5 1   
     5     2     6 1   
     6     2     7 1   
     7     2    24 1   
     8     3     8 1   
     9     3    25 1   
    10     3    26 1   
    11     4     9 1   
    12     4    27 1   
    13     4    28 1   
    14     5    10 1   
    15     5    29 1   
    16     5    30 1   
    17     6    11 1   
    18     6    12 2   
    19     7    31 1   
    20     7    32 1   
    21     8    13 1   
    22     8    14 1   
    23     8    15 1   
    24     9    13 1   
    25     9    16 1   
    26     9    33 1   
    27    10    14 1   
    28    10    16 1   
    29    10    34 1   
    30    11    17 1   
    31    11    18 1   
    32    13    35 1   
    33    13    36 1   
    34    14    37 1   
    35    14    38 1   
    36    15    39 1   
    37    16    40 1   
    38    16    41 1   
    39    17    19 1   
    40    17    20 1   
    41    17    42 1   
    42    18    21 1   
    43    18    22 1   
    44    18    43 1   
    45    19    20 1   
    46    19    21 1   
    47    19    44 1   
    48    20    45 1   
    49    20    46 1   
    50    21    47 1   
    51    21    48 1   
    52    22    23 1   
    53    22    49 1   
    54    22    50 1   
    55    23    51 1   
    56    23    52 1   
@<TRIPOS>SUBSTRUCTURE
     1 BJM         1 TEMP              0 ****  ****    0 ROOT
