@<TRIPOS>MOLECULE
BA8
   46    49     1     0     0
SMALL
bcc


@<TRIPOS>ATOM
      1 CL           3.4130    36.8970    22.8810 cl       301 BA8      -0.063400
      2 C1           1.2430    33.7370    25.6920 ca       301 BA8      -0.203300
      3 C2           0.0670    33.3460    26.3560 ca       301 BA8       0.181100
      4 C3          -1.1860    33.7240    25.8570 ca       301 BA8      -0.202000
      5 C4          -1.2790    34.5260    24.7160 ca       301 BA8       0.184100
      6 C5          -0.1090    34.9220    24.0330 ca       301 BA8      -0.155000
      7 C6           1.1400    34.5120    24.5430 ca       301 BA8      -0.028000
      8 O7           0.1340    32.6520    27.5230 oh       301 BA8      -0.496100
      9 C8          -0.1110    35.8300    22.8520 cc       301 BA8      -0.039300
     10 C9          -0.6690    35.6420    21.6070 cd       301 BA8      -0.302300
     11 C10         -0.3960    36.7870    20.8510 cd       301 BA8       0.296200
     12 N11          0.2890    37.6280    21.5810 nc       301 BA8      -0.481800
     13 N12          0.4570    37.0840    22.8660 na       301 BA8       0.153300
     14 C13          1.0910    37.6900    23.9870 ca       301 BA8       0.018800
     15 C14          2.4810    37.6350    24.1380 ca       301 BA8       0.027400
     16 C15          3.1170    38.1740    25.2670 ca       301 BA8      -0.125000
     17 C16          2.3380    38.7410    26.2720 ca       301 BA8      -0.115000
     18 C17          0.9450    38.7840    26.1310 ca       301 BA8      -0.124000
     19 C18          0.3130    38.2250    25.0270 ca       301 BA8      -0.107000
     20 O20         -2.5090    34.8400    24.2490 oh       301 BA8      -0.494100
     21 C21          2.6130    33.2690    26.1810 c3       301 BA8      -0.029100
     22 C22          6.2470    30.2720    25.1000 ca       301 BA8      -0.089000
     23 C23          7.2900    31.0400    25.6300 ca       301 BA8      -0.248300
     24 C24          7.0470    32.3700    25.9850 ca       301 BA8       0.402200
     25 N25          5.8340    32.9030    25.8110 nb       301 BA8      -0.679000
     26 C26          4.8150    32.2080    25.3050 ca       301 BA8       0.404600
     27 C27          4.9940    30.8810    24.9090 ca       301 BA8      -0.241300
     28 C28          3.4960    32.8810    24.9890 c3       301 BA8      -0.135700
     29 H01         -2.0930    33.3910    26.3610 ha       301 BA8       0.171000
     30 H02          2.0490    34.8110    24.0220 ha       301 BA8       0.144000
     31 H03          0.7360    31.9110    27.4210 ho       301 BA8       0.441000
     32 H04         -1.2210    34.7640    21.2730 ha       301 BA8       0.171000
     33 H05         -0.7050    36.9520    19.8190 h4       301 BA8       0.047100
     34 H06          4.2030    38.1490    25.3560 ha       301 BA8       0.152000
     35 H07          2.8100    39.1500    27.1650 ha       301 BA8       0.142000
     36 H08          0.3450    39.2660    26.9030 ha       301 BA8       0.144000
     37 H09         -0.7750    38.2020    24.9690 ha       301 BA8       0.154000
     38 H10         -2.8440    34.1150    23.7170 ho       301 BA8       0.435000
     39 H11          2.4830    32.3990    26.8250 hc       301 BA8       0.058700
     40 H12          3.0920    34.0740    26.7380 hc       301 BA8       0.058700
     41 H13          6.4030    29.2250    24.8410 ha       301 BA8       0.140000
     42 H14          8.2810    30.6060    25.7640 ha       301 BA8       0.145000
     43 H15          7.8500    32.9750    26.4060 h4       301 BA8       0.023100
     44 H16          4.1730    30.3240    24.4580 ha       301 BA8       0.144000
     45 H17          3.7650    33.8250    24.5150 hc       301 BA8       0.061700
     46 H18          2.9210    32.2020    24.3600 hc       301 BA8       0.061700
@<TRIPOS>BOND
     1     1    15 1   
     2     2     3 ar  
     3     2     7 ar  
     4     2    21 1   
     5     3     4 ar  
     6     3     8 1   
     7     4     5 ar  
     8     4    29 1   
     9     5     6 ar  
    10     5    20 1   
    11     6     7 ar  
    12     6     9 1   
    13     7    30 1   
    14     8    31 1   
    15     9    10 2   
    16     9    13 1   
    17    10    11 1   
    18    10    32 1   
    19    11    12 2   
    20    11    33 1   
    21    12    13 1   
    22    13    14 1   
    23    14    15 ar  
    24    14    19 ar  
    25    15    16 ar  
    26    16    17 ar  
    27    16    34 1   
    28    17    18 ar  
    29    17    35 1   
    30    18    19 ar  
    31    18    36 1   
    32    19    37 1   
    33    20    38 1   
    34    21    28 1   
    35    21    39 1   
    36    21    40 1   
    37    22    23 ar  
    38    22    27 ar  
    39    22    41 1   
    40    23    24 ar  
    41    23    42 1   
    42    24    25 ar  
    43    24    43 1   
    44    25    26 ar  
    45    26    27 ar  
    46    26    28 1   
    47    27    44 1   
    48    28    45 1   
    49    28    46 1   
@<TRIPOS>SUBSTRUCTURE
     1 BA8         1 TEMP              0 ****  ****    0 ROOT
