@<TRIPOS>MOLECULE
BA8
   46    49     1     0     0
SMALL
bcc


@<TRIPOS>ATOM
      1 H13          0.3450    39.2660    26.9030 ha         0 BA8       0.144000
      2 H14         -0.7750    38.2020    24.9690 ha         0 BA8       0.154000
      3 H18          2.9210    32.2020    24.3600 hc         0 BA8       0.061700
      4 H02         -1.2210    34.7640    21.2730 ha         0 BA8       0.171000
      5 H12          0.7360    31.9110    27.4210 ho         0 BA8       0.441000
      6 H17          3.7650    33.8250    24.5150 hc         0 BA8       0.061700
      7 H01         -2.0930    33.3910    26.3610 ha         0 BA8       0.171000
      8 H15         -2.8440    34.1150    23.7170 ho         0 BA8       0.435000
      9 H07          3.0920    34.0740    26.7380 hc         0 BA8       0.058700
     10 H04          4.2030    38.1490    25.3560 ha         0 BA8       0.152000
     11 H05          2.8100    39.1500    27.1650 ha         0 BA8       0.142000
     12 H16          8.2810    30.6060    25.7640 ha         0 BA8       0.145000
     13 H06          2.4830    32.3990    26.8250 hc         0 BA8       0.058700
     14 H03         -0.7050    36.9520    19.8190 h4         0 BA8       0.047100
     15 H10          4.1730    30.3240    24.4580 ha         0 BA8       0.144000
     16 H09          7.8500    32.9750    26.4060 h4         0 BA8       0.023100
     17 H08          6.4030    29.2250    24.8410 ha         0 BA8       0.140000
     18 H11          2.0490    34.8110    24.0220 ha         0 BA8       0.144000
     19 C            1.2430    33.7370    25.6920 ca         0 BA8      -0.203300
     20 C1           0.0670    33.3460    26.3560 ca         0 BA8       0.181100
     21 C2          -1.1860    33.7240    25.8570 ca         0 BA8      -0.202000
     22 C3          -0.1110    35.8300    22.8520 cc         0 BA8      -0.039300
     23 C4          -0.6690    35.6420    21.6070 cd         0 BA8      -0.302300
     24 C5          -0.3960    36.7870    20.8510 cd         0 BA8       0.296200
     25 C6           1.0910    37.6900    23.9870 ca         0 BA8       0.018800
     26 C7           2.4810    37.6350    24.1380 ca         0 BA8       0.027400
     27 C8           3.1170    38.1740    25.2670 ca         0 BA8      -0.126000
     28 C9           2.3380    38.7410    26.2720 ca         0 BA8      -0.115000
     29 C10          2.6130    33.2690    26.1810 c3         0 BA8      -0.029100
     30 C11          6.2470    30.2720    25.1000 ca         0 BA8      -0.089000
     31 C12          7.0470    32.3700    25.9850 ca         0 BA8       0.402200
     32 N            5.8340    32.9030    25.8110 nb         0 BA8      -0.679000
     33 C13          4.9940    30.8810    24.9090 ca         0 BA8      -0.241300
     34 C14         -1.2790    34.5260    24.7160 ca         0 BA8       0.184100
     35 C15         -0.1090    34.9220    24.0330 ca         0 BA8      -0.155000
     36 C16          1.1400    34.5120    24.5430 ca         0 BA8      -0.028000
     37 O            0.1340    32.6520    27.5230 oh         0 BA8      -0.496100
     38 N1           0.2890    37.6280    21.5810 nc         0 BA8      -0.481800
     39 N2           0.4570    37.0840    22.8660 na         0 BA8       0.153300
     40 C17          0.9450    38.7840    26.1310 ca         0 BA8      -0.124000
     41 C18          0.3130    38.2250    25.0270 ca         0 BA8      -0.107000
     42 Cl           3.4130    36.8970    22.8810 cl         0 BA8      -0.063400
     43 O1          -2.5090    34.8400    24.2490 oh         0 BA8      -0.494100
     44 C19          7.2900    31.0400    25.6300 ca         0 BA8      -0.248300
     45 C20          4.8150    32.2080    25.3050 ca         0 BA8       0.404600
     46 C21          3.4960    32.8810    24.9890 c3         0 BA8      -0.135700
@<TRIPOS>BOND
     1     1    40 1   
     2     2    41 1   
     3     3    46 1   
     4     4    23 1   
     5     5    37 1   
     6     6    46 1   
     7     7    21 1   
     8     8    43 1   
     9     9    29 1   
    10    10    27 1   
    11    11    28 1   
    12    12    44 1   
    13    13    29 1   
    14    14    24 1   
    15    15    33 1   
    16    16    31 1   
    17    17    30 1   
    18    18    36 1   
    19    19    20 ar  
    20    19    29 1   
    21    19    36 ar  
    22    20    21 ar  
    23    20    37 1   
    24    21    34 ar  
    25    22    23 2   
    26    22    35 1   
    27    22    39 1   
    28    23    24 1   
    29    24    38 2   
    30    25    26 ar  
    31    25    39 1   
    32    25    41 ar  
    33    26    27 ar  
    34    26    42 1   
    35    27    28 ar  
    36    28    40 ar  
    37    29    46 1   
    38    30    33 ar  
    39    30    44 ar  
    40    31    32 ar  
    41    31    44 ar  
    42    32    45 ar  
    43    33    45 ar  
    44    34    35 ar  
    45    34    43 1   
    46    35    36 ar  
    47    38    39 1   
    48    40    41 ar  
    49    45    46 1   
@<TRIPOS>SUBSTRUCTURE
     1 BA8         1 TEMP              0 ****  ****    0 ROOT
