@<TRIPOS>MOLECULE
2TK
   42    43     1     0     0
SMALL
bcc


@<TRIPOS>ATOM
      1 H02          5.1710    21.4930    46.0360 ha         0 2TK       0.153000
      2 H04          3.2840    17.2850    46.6000 hc         0 2TK       0.051700
      3 H06          4.0730    16.6940    44.6940 hc         0 2TK       0.045700
      4 H03          6.3240    17.3120    48.5180 ha         0 2TK       0.139000
      5 H08          6.6390    16.0160    45.8560 hc         0 2TK       0.040200
      6 H07          4.2170    15.1190    45.6650 hc         0 2TK       0.045700
      7 H11          7.0550    14.1620    44.8350 hc         0 2TK       0.039700
      8 H10          5.3620    14.2030    44.1220 hc         0 2TK       0.039700
      9 H09          6.1900    16.8330    44.2870 hc         0 2TK       0.040200
     10 H05          4.4980    16.2790    47.5810 hc         0 2TK       0.051700
     11 H15          6.3640    14.8200    40.7370 hc         0 2TK       0.032700
     12 H14          5.0150    15.2240    41.8250 hc         0 2TK       0.032700
     13 H13          7.2780    15.8320    42.7130 hc         0 2TK       0.039200
     14 H16          5.5750    13.5410    41.6920 hc         0 2TK       0.032700
     15 H20         10.5250    20.4280    45.1580 ha         0 2TK       0.135000
     16 H19         11.8580    22.4530    45.7080 ha         0 2TK       0.137000
     17 H18         10.9230    24.1740    47.2610 ha         0 2TK       0.146000
     18 H21          8.2850    20.0890    46.1830 ha         0 2TK       0.149000
     19 H17          8.0260    18.6160    49.4390 ho         0 2TK       0.420000
     20 H12          7.6180    14.0320    42.7400 hc         0 2TK       0.039200
     21 H01          3.9900    19.3610    45.5100 ha         0 2TK       0.140000
     22 C            4.7620    19.3850    46.2790 ca         0 2TK      -0.160000
     23 C1           5.4270    20.5790    46.5730 ca         0 2TK      -0.093000
     24 C2           6.4220    20.5990    47.5580 ca         0 2TK       0.043100
     25 C3           6.7380    19.4300    48.2550 ca         0 2TK       0.130100
     26 C4           6.0770    18.2240    47.9740 ca         0 2TK      -0.211000
     27 C5           5.0950    18.2200    46.9800 ca         0 2TK      -0.030300
     28 C6           4.3090    16.9370    46.7330 c3         0 2TK      -0.042100
     29 C7           4.5790    16.1300    45.4780 c3         0 2TK      -0.075400
     30 C8           6.0020    16.0050    44.9710 c3         0 2TK      -0.078400
     31 C9           6.3220    14.7050    44.2380 c3         0 2TK      -0.077400
     32 C10          6.8760    14.8250    42.8280 c3         0 2TK      -0.080400
     33 C11          5.8870    14.5850    41.6890 c3         0 2TK      -0.093100
     34 O            7.7330    19.5020    49.2140 oh         0 2TK      -0.475100
     35 O1           7.0610    21.8120    47.8670 os         0 2TK      -0.221200
     36 C12          8.3280    21.9450    47.2730 ca         0 2TK       0.155100
     37 C13          9.0820    23.0790    47.5540 ca         0 2TK      -0.052900
     38 C14         10.3490    23.2810    47.0130 ca         0 2TK      -0.081000
     39 C15         10.8700    22.3160    46.1460 ca         0 2TK      -0.164000
     40 C16         10.1220    21.1750    45.8420 ca         0 2TK      -0.087000
     41 C17          8.8570    20.9880    46.4130 ca         0 2TK      -0.188000
     42 Br           8.3250    24.3820    48.7350 br         0 2TK      -0.070100
@<TRIPOS>BOND
     1     1    23 1   
     2     2    28 1   
     3     3    29 1   
     4     4    26 1   
     5     5    30 1   
     6     6    29 1   
     7     7    31 1   
     8     8    31 1   
     9     9    30 1   
    10    10    28 1   
    11    11    33 1   
    12    12    33 1   
    13    13    32 1   
    14    14    33 1   
    15    15    40 1   
    16    16    39 1   
    17    17    38 1   
    18    18    41 1   
    19    19    34 1   
    20    20    32 1   
    21    21    22 1   
    22    22    23 ar  
    23    22    27 ar  
    24    23    24 ar  
    25    24    25 ar  
    26    24    35 1   
    27    25    26 ar  
    28    25    34 1   
    29    26    27 ar  
    30    27    28 1   
    31    28    29 1   
    32    29    30 1   
    33    30    31 1   
    34    31    32 1   
    35    32    33 1   
    36    35    36 1   
    37    36    37 ar  
    38    36    41 ar  
    39    37    38 ar  
    40    37    42 1   
    41    38    39 ar  
    42    39    40 ar  
    43    40    41 ar  
@<TRIPOS>SUBSTRUCTURE
     1 2TK         1 TEMP              0 ****  ****    0 ROOT
