@<TRIPOS>MOLECULE
2TK
   42    43     1     0     0
SMALL
bcc


@<TRIPOS>ATOM
      1 C01          4.7620    19.3850    46.2790 ca       301 2TK      -0.160000
      2 C02          5.4270    20.5790    46.5730 ca       301 2TK      -0.093000
      3 C03          6.4220    20.5990    47.5580 ca       301 2TK       0.043100
      4 C04          6.7380    19.4300    48.2550 ca       301 2TK       0.130100
      5 C05          6.0770    18.2240    47.9740 ca       301 2TK      -0.211000
      6 C06          5.0950    18.2200    46.9800 ca       301 2TK      -0.030300
      7 C07          4.3090    16.9370    46.7330 c3       301 2TK      -0.042100
      8 C08          4.5790    16.1300    45.4780 c3       301 2TK      -0.075400
      9 C09          6.0020    16.0050    44.9710 c3       301 2TK      -0.078400
     10 C10          6.3220    14.7050    44.2380 c3       301 2TK      -0.077400
     11 C11          6.8760    14.8250    42.8280 c3       301 2TK      -0.080400
     12 C12          5.8870    14.5850    41.6890 c3       301 2TK      -0.093100
     13 O13          7.7330    19.5020    49.2140 oh       301 2TK      -0.475100
     14 O14          7.0610    21.8120    47.8670 os       301 2TK      -0.221200
     15 C15          8.3280    21.9450    47.2730 ca       301 2TK       0.154100
     16 C16          9.0820    23.0790    47.5540 ca       301 2TK      -0.052900
     17 C17         10.3490    23.2810    47.0130 ca       301 2TK      -0.081000
     18 C18         10.8700    22.3160    46.1460 ca       301 2TK      -0.164000
     19 C19         10.1220    21.1750    45.8420 ca       301 2TK      -0.087000
     20 C20          8.8570    20.9880    46.4130 ca       301 2TK      -0.187000
     21 BR1          8.3250    24.3820    48.7350 br       301 2TK      -0.070100
     22 H01          3.9900    19.3610    45.5100 ha       301 2TK       0.140000
     23 H02          5.1710    21.4930    46.0360 ha       301 2TK       0.153000
     24 H03          6.3240    17.3120    48.5180 ha       301 2TK       0.139000
     25 H04          3.2840    17.2850    46.6000 hc       301 2TK       0.051700
     26 H05          4.4980    16.2790    47.5810 hc       301 2TK       0.051700
     27 H06          4.0730    16.6940    44.6940 hc       301 2TK       0.045700
     28 H07          4.2170    15.1190    45.6650 hc       301 2TK       0.045700
     29 H08          6.6390    16.0160    45.8560 hc       301 2TK       0.040200
     30 H09          6.1900    16.8330    44.2870 hc       301 2TK       0.040200
     31 H10          5.3620    14.2030    44.1220 hc       301 2TK       0.039700
     32 H11          7.0550    14.1620    44.8350 hc       301 2TK       0.039700
     33 H12          7.6180    14.0320    42.7400 hc       301 2TK       0.039200
     34 H13          7.2780    15.8320    42.7130 hc       301 2TK       0.039200
     35 H14          5.0150    15.2240    41.8250 hc       301 2TK       0.032700
     36 H15          6.3640    14.8200    40.7370 hc       301 2TK       0.032700
     37 H16          5.5750    13.5410    41.6920 hc       301 2TK       0.032700
     38 H17          8.0260    18.6160    49.4390 ho       301 2TK       0.420000
     39 H18         10.9230    24.1740    47.2610 ha       301 2TK       0.146000
     40 H19         11.8580    22.4530    45.7080 ha       301 2TK       0.137000
     41 H20         10.5250    20.4280    45.1580 ha       301 2TK       0.135000
     42 H21          8.2850    20.0890    46.1830 ha       301 2TK       0.149000
@<TRIPOS>BOND
     1     1     2 ar  
     2     1     6 ar  
     3     1    22 1   
     4     2     3 ar  
     5     2    23 1   
     6     3     4 ar  
     7     3    14 1   
     8     4     5 ar  
     9     4    13 1   
    10     5     6 ar  
    11     5    24 1   
    12     6     7 1   
    13     7     8 1   
    14     7    25 1   
    15     7    26 1   
    16     8     9 1   
    17     8    27 1   
    18     8    28 1   
    19     9    10 1   
    20     9    29 1   
    21     9    30 1   
    22    10    11 1   
    23    10    31 1   
    24    10    32 1   
    25    11    12 1   
    26    11    33 1   
    27    11    34 1   
    28    12    35 1   
    29    12    36 1   
    30    12    37 1   
    31    13    38 1   
    32    14    15 1   
    33    15    16 ar  
    34    15    20 ar  
    35    16    17 ar  
    36    16    21 1   
    37    17    18 ar  
    38    17    39 1   
    39    18    19 ar  
    40    18    40 1   
    41    19    20 ar  
    42    19    41 1   
    43    20    42 1   
@<TRIPOS>SUBSTRUCTURE
     1 2TK         1 TEMP              0 ****  ****    0 ROOT
