@<TRIPOS>MOLECULE
53K
   52    55     1     0     0
SMALL
bcc


@<TRIPOS>ATOM
      1 C1          10.3140     0.1810    53.7920 c3       302 53K      -0.048800
      2 N1          13.6120    -7.4980    50.3330 na       302 53K       0.042400
      3 O1          10.9490    -2.2720    52.5430 os       302 53K      -0.262200
      4 C2          11.1340    -0.7810    54.3750 ca       302 53K      -0.083300
      5 N2          15.7210    -7.8810    50.4470 nc       302 53K      -0.358000
      6 O2           9.6470    -4.6360    53.1510 oh       302 53K      -0.492100
      7 C3          11.6510    -0.5070    55.6340 ca       302 53K      -0.112000
      8 N3          14.8810    -7.1970    49.8090 nd       302 53K      -0.169800
      9 C4          12.4860    -1.4130    56.3330 ca       302 53K      -0.144000
     10 C5          12.7610    -2.6210    55.7160 ca       302 53K      -0.108000
     11 C6          12.2940    -2.8830    54.4490 ca       302 53K      -0.170000
     12 C7          11.4460    -2.0030    53.7920 ca       302 53K       0.097100
     13 C8          11.2940    -3.4380    51.9180 ca       302 53K       0.025100
     14 C9          12.3290    -3.4440    50.9910 ca       302 53K      -0.121000
     15 C10         12.6350    -4.6070    50.3740 ca       302 53K      -0.121000
     16 C11         11.9880    -5.7880    50.6480 ca       302 53K      -0.101300
     17 C12         12.3670    -6.9550    49.8890 c3       302 53K       0.102600
     18 C13         13.7950    -8.3920    51.2870 cd       302 53K      -0.224600
     19 C14         15.0910    -8.6160    51.3540 cc       302 53K       0.273600
     20 C15         15.7960    -9.5570    52.3980 c3       302 53K      -0.074000
     21 C16         15.0960   -10.8920    52.4600 c3       302 53K      -0.071900
     22 C17         15.3400   -11.8400    51.3130 c3       302 53K      -0.076900
     23 C18         16.8590   -11.9260    51.2130 c3       302 53K      -0.076400
     24 C19         17.4060   -10.5520    50.8990 c3       302 53K      -0.076900
     25 C20         17.2650    -9.6970    52.1020 c3       302 53K      -0.071900
     26 C21         10.9240    -5.8010    51.5460 ca       302 53K      -0.136000
     27 C22         10.5980    -4.6320    52.2070 ca       302 53K       0.122100
     28 H01          9.4060     0.2910    54.3840 hc       302 53K       0.049700
     29 H02         10.8410     1.1350    53.7560 hc       302 53K       0.049700
     30 H03         10.0520    -0.1290    52.7800 hc       302 53K       0.049700
     31 H04          9.4830    -3.7370    53.4440 ho       302 53K       0.439000
     32 H05         11.4040     0.4450    56.1040 ha       302 53K       0.137000
     33 H06         12.8940    -1.1690    57.3140 ha       302 53K       0.136000
     34 H07         13.3530    -3.3720    56.2390 ha       302 53K       0.138000
     35 H08         12.5970    -3.8030    53.9500 ha       302 53K       0.149000
     36 H09         12.8820    -2.5320    50.7660 ha       302 53K       0.155000
     37 H10         13.4290    -4.6080    49.6270 ha       302 53K       0.157000
     38 H11         11.5980    -7.7140    50.0310 h1       302 53K       0.076700
     39 H12         12.4570    -6.6790    48.8380 h1       302 53K       0.076700
     40 H13         13.0230    -8.8550    51.9010 h4       302 53K       0.190000
     41 H14         15.7190    -9.1000    53.3850 hc       302 53K       0.062700
     42 H15         14.0320   -10.6590    52.4160 hc       302 53K       0.045700
     43 H16         15.4160   -11.3910    53.3750 hc       302 53K       0.045700
     44 H17         14.8800   -11.4990    50.3860 hc       302 53K       0.039950
     45 H18         14.9100   -12.8190    51.5220 hc       302 53K       0.039950
     46 H19         17.1390   -12.6240    50.4240 hc       302 53K       0.038700
     47 H20         17.2700   -12.2770    52.1600 hc       302 53K       0.038700
     48 H21         16.8550   -10.1150    50.0670 hc       302 53K       0.039950
     49 H22         18.4580   -10.6290    50.6250 hc       302 53K       0.039950
     50 H23         17.7830   -10.1450    52.9500 hc       302 53K       0.045700
     51 H24         17.7010    -8.7160    51.9140 hc       302 53K       0.045700
     52 H25         10.3590    -6.7160    51.7240 ha       302 53K       0.152000
@<TRIPOS>BOND
     1     1     4 1   
     2     1    28 1   
     3     1    29 1   
     4     1    30 1   
     5     2     8 1   
     6     2    17 1   
     7     2    18 1   
     8     3    12 1   
     9     3    13 1   
    10     4     7 ar  
    11     4    12 ar  
    12     5     8 2   
    13     5    19 1   
    14     6    27 1   
    15     6    31 1   
    16     7     9 ar  
    17     7    32 1   
    18     9    10 ar  
    19     9    33 1   
    20    10    11 ar  
    21    10    34 1   
    22    11    12 ar  
    23    11    35 1   
    24    13    14 ar  
    25    13    27 ar  
    26    14    15 ar  
    27    14    36 1   
    28    15    16 ar  
    29    15    37 1   
    30    16    17 1   
    31    16    26 ar  
    32    17    38 1   
    33    17    39 1   
    34    18    19 2   
    35    18    40 1   
    36    19    20 1   
    37    20    21 1   
    38    20    25 1   
    39    20    41 1   
    40    21    22 1   
    41    21    42 1   
    42    21    43 1   
    43    22    23 1   
    44    22    44 1   
    45    22    45 1   
    46    23    24 1   
    47    23    46 1   
    48    23    47 1   
    49    24    25 1   
    50    24    48 1   
    51    24    49 1   
    52    25    50 1   
    53    25    51 1   
    54    26    27 ar  
    55    26    52 1   
@<TRIPOS>SUBSTRUCTURE
     1 53K         1 TEMP              0 ****  ****    0 ROOT
