@<TRIPOS>MOLECULE
53K
   52    55     1     0     0
SMALL
bcc


@<TRIPOS>ATOM
      1 H01         12.8940    -1.1690    57.3140 ha         0 53K       0.136000
      2 H12          9.4830    -3.7370    53.4440 ho         0 53K       0.439000
      3 H04         13.4290    -4.6080    49.6270 ha         0 53K       0.157000
      4 H03         12.5970    -3.8030    53.9500 ha         0 53K       0.149000
      5 H02         13.3530    -3.3720    56.2390 ha         0 53K       0.138000
      6 H11         10.3590    -6.7160    51.7240 ha         0 53K       0.152000
      7 H09         17.7830   -10.1450    52.9500 hc         0 53K       0.045700
      8 H08         14.9100   -12.8190    51.5220 hc         0 53K       0.039950
      9 H15         10.8410     1.1350    53.7560 hc         0 53K       0.049700
     10 H07         14.8800   -11.4990    50.3860 hc         0 53K       0.039950
     11 H05         13.0230    -8.8550    51.9010 h4         0 53K       0.190000
     12 H06         15.7190    -9.1000    53.3850 hc         0 53K       0.062700
     13 H23         17.1360   -12.6210    50.4200 hc         0 53K       0.038700
     14 H14          9.4060     0.2910    54.3840 hc         0 53K       0.049700
     15 H18         11.5980    -7.7140    50.0310 h1         0 53K       0.076700
     16 H17         12.8820    -2.5320    50.7660 ha         0 53K       0.155000
     17 H16         10.0520    -0.1290    52.7800 hc         0 53K       0.049700
     18 H19         12.4570    -6.6790    48.8380 h1         0 53K       0.076700
     19 H22         17.2720   -12.2820    52.1570 hc         0 53K       0.038700
     20 H21         16.8480   -10.1150    50.0700 hc         0 53K       0.039950
     21 H20         18.4570   -10.6260    50.6180 hc         0 53K       0.039950
     22 H10         17.7010    -8.7160    51.9140 hc         0 53K       0.045700
     23 H13         11.4040     0.4450    56.1040 ha         0 53K       0.137000
     24 H25         15.4160   -11.3910    53.3750 hc         0 53K       0.045700
     25 H24         14.0320   -10.6590    52.4160 hc         0 53K       0.045700
     26 N           13.6120    -7.4980    50.3330 na         0 53K       0.042400
     27 N1          14.8810    -7.1970    49.8090 nc         0 53K      -0.169800
     28 C           12.4860    -1.4130    56.3330 ca         0 53K      -0.144000
     29 C1          12.7610    -2.6210    55.7160 ca         0 53K      -0.108000
     30 C2          12.2940    -2.8830    54.4490 ca         0 53K      -0.170000
     31 C3          11.4460    -2.0030    53.7920 ca         0 53K       0.097100
     32 C4          11.2940    -3.4380    51.9180 ca         0 53K       0.025100
     33 C5          12.6350    -4.6070    50.3740 ca         0 53K      -0.121000
     34 C6          13.7950    -8.3920    51.2870 cc         0 53K      -0.224600
     35 C7          15.7960    -9.5570    52.3980 c3         0 53K      -0.074000
     36 C8          15.3400   -11.8400    51.3130 c3         0 53K      -0.076900
     37 C9          17.2650    -9.6970    52.1020 c3         0 53K      -0.071900
     38 C10         10.9240    -5.8010    51.5460 ca         0 53K      -0.136000
     39 C11         10.5980    -4.6320    52.2070 ca         0 53K       0.122100
     40 O            9.6470    -4.6360    53.1510 oh         0 53K      -0.492100
     41 O1          10.9490    -2.2720    52.5430 os         0 53K      -0.262200
     42 C12         11.6510    -0.5070    55.6340 ca         0 53K      -0.112000
     43 C13         11.1340    -0.7810    54.3750 ca         0 53K      -0.083300
     44 C14         10.3140     0.1810    53.7920 c3         0 53K      -0.048800
     45 C15         11.9880    -5.7880    50.6480 ca         0 53K      -0.101300
     46 C16         12.3290    -3.4440    50.9910 ca         0 53K      -0.121000
     47 C17         12.3670    -6.9550    49.8890 c3         0 53K       0.102600
     48 N2          15.7210    -7.8810    50.4470 nd         0 53K      -0.358000
     49 C18         15.0910    -8.6160    51.3540 cd         0 53K       0.273600
     50 C19         17.4060   -10.5520    50.8990 c3         0 53K      -0.076900
     51 C20         16.8590   -11.9260    51.2130 c3         0 53K      -0.076400
     52 C21         15.0960   -10.8920    52.4600 c3         0 53K      -0.071900
@<TRIPOS>BOND
     1     1    28 1   
     2     2    40 1   
     3     3    33 1   
     4     4    30 1   
     5     5    29 1   
     6     6    38 1   
     7     7    37 1   
     8     8    36 1   
     9     9    44 1   
    10    10    36 1   
    11    11    34 1   
    12    12    35 1   
    13    13    51 1   
    14    14    44 1   
    15    15    47 1   
    16    16    46 1   
    17    17    44 1   
    18    18    47 1   
    19    19    51 1   
    20    20    50 1   
    21    21    50 1   
    22    22    37 1   
    23    23    42 1   
    24    24    52 1   
    25    25    52 1   
    26    26    27 1   
    27    26    34 1   
    28    26    47 1   
    29    27    48 2   
    30    28    29 ar  
    31    28    42 ar  
    32    29    30 ar  
    33    30    31 ar  
    34    31    41 1   
    35    31    43 ar  
    36    32    39 ar  
    37    32    41 1   
    38    32    46 ar  
    39    33    45 ar  
    40    33    46 ar  
    41    34    49 2   
    42    35    37 1   
    43    35    49 1   
    44    35    52 1   
    45    36    51 1   
    46    36    52 1   
    47    37    50 1   
    48    38    39 ar  
    49    38    45 ar  
    50    39    40 1   
    51    42    43 ar  
    52    43    44 1   
    53    45    47 1   
    54    48    49 1   
    55    50    51 1   
@<TRIPOS>SUBSTRUCTURE
     1 53K         1 TEMP              0 ****  ****    0 ROOT
