@<TRIPOS>MOLECULE
/web/media/ligands/4OIM_ligand.pdb
 22 23 0 0 0
SMALL
GASTEIGER

@<TRIPOS>ATOM
      1 C           2.9850  -16.0630   12.2230 C.ar    1  UNL1        0.0410
      2 C           2.5540  -16.1660   13.5600 C.ar    1  UNL1       -0.0188
      3 C           2.6890  -17.4000   14.2990 C.ar    1  UNL1       -0.0009
      4 C           3.2510  -18.5240   13.6540 C.ar    1  UNL1        0.0405
      5 C           3.6640  -18.4220   12.3460 C.ar    1  UNL1        0.1839
      6 C           3.5270  -17.1550   11.6050 C.ar    1  UNL1        0.2295
      7 C           5.5940  -19.5420   11.6320 C.ar    1  UNL1        0.1549
      8 C           6.3590  -18.5810   12.2270 C.ar    1  UNL1        0.0382
      9 C           7.7610  -18.6450   12.1220 C.ar    1  UNL1        0.0032
     10 C           8.3950  -19.7240   11.4190 C.ar    1  UNL1        0.0009
     11 C           7.6060  -20.7300   10.8230 C.ar    1  UNL1        0.0134
     12 C           6.2460  -20.6500   10.9110 C.ar    1  UNL1        0.1029
     13 C           1.9870  -14.9470   14.2720 C.3     1  UNL1        0.0265
     14 C           3.0280  -14.3050   15.1840 C.3     1  UNL1        0.0047
     15 C           2.6100  -13.1370   16.0580 C.3     1  UNL1        0.0003
     16 C           3.7420  -12.5000   16.8550 C.3     1  UNL1        0.0000
     17 C           5.1070  -12.4570   16.1750 C.3     1  UNL1        0.0000
     18 C           5.9730  -11.2400   16.4710 C.3     1  UNL1        0.0000
     19 C           5.3390  -21.6950   10.2800 C.1     1  UNL1        0.1035
     20 O           3.9670  -17.0870   10.2740 O.3     1  UNL1       -0.2833
     21 N           4.6000  -22.5440    9.7640 N.1     1  UNL1       -0.1907
     22 O           4.1940  -19.5460   11.6930 O.3     1  UNL1       -0.4496
@<TRIPOS>BOND
     1     1     2   ar
     2     2    13    1
     3     2     3   ar
     4     4     3   ar
     5     5     4   ar
     6     6     1   ar
     7     6     5   ar
     8     7    22    1
     9     7     8   ar
    10     9     8   ar
    11    10     9   ar
    12    11    12   ar
    13    11    10   ar
    14    12     7   ar
    15    13    14    1
    16    14    15    1
    17    15    16    1
    18    17    18    1
    19    17    16    1
    20    19    12    1
    21    20     6    1
    22    21    19    3
    23    22     5    1
