@<TRIPOS>MOLECULE
BAW
   40    42     1     0     0
SMALL
bcc


@<TRIPOS>ATOM
      1 H15         66.0760    37.9440    21.5430 hc         0 BAW       0.055033
      2 H17         65.0790    38.8110    22.7360 hc         0 BAW       0.055033
      3 H06         67.0880    30.8990    25.0980 hc         0 BAW       0.038367
      4 H11         65.5580    31.1700    28.5760 ho         0 BAW       0.427000
      5 H02         67.9470    32.7500    26.6310 hc         0 BAW       0.049200
      6 H01         62.5340    32.6150    27.5320 ha         0 BAW       0.171000
      7 H05         66.6160    29.9890    26.5540 hc         0 BAW       0.038367
      8 H04         68.3310    30.3570    26.2510 hc         0 BAW       0.038367
      9 H16         64.3620    38.2750    21.1970 hc         0 BAW       0.055033
     10 H03         67.2540    31.8620    28.0020 hc         0 BAW       0.049200
     11 H09         64.4720    37.1730    26.3870 ha         0 BAW       0.139000
     12 H08         66.0580    38.1790    28.0150 ha         0 BAW       0.139000
     13 H07         68.4620    38.4120    27.4390 ha         0 BAW       0.137000
     14 H10         66.6550    33.8240    25.0250 ha         0 BAW       0.145000
     15 H14         69.2520    37.7510    25.1790 ha         0 BAW       0.148000
     16 H13         63.0310    33.9650    22.8380 hn         0 BAW       0.326700
     17 H12         61.8170    33.7000    24.7400 ho         0 BAW       0.433000
     18 C           64.6630    32.3490    27.3720 ca         0 BAW       0.177100
     19 C1          63.4360    32.8660    26.9730 ca         0 BAW      -0.198000
     20 C2          63.3540    33.6990    25.8680 ca         0 BAW       0.183100
     21 C3          67.1640    32.0540    26.9330 c3         0 BAW      -0.034100
     22 C4          67.3100    30.7270    26.1510 c3         0 BAW      -0.098100
     23 C5          64.4110    34.9630    24.0150 cc         0 BAW      -0.050300
     24 C6          64.6980    36.7090    22.6170 cd         0 BAW       0.331600
     25 C7          65.0490    36.2330    23.8650 cd         0 BAW      -0.197300
     26 C8          65.9750    36.8450    24.8660 ca         0 BAW      -0.030000
     27 C9          67.7630    37.9930    26.7150 ca         0 BAW      -0.105000
     28 C10         66.4180    37.8480    27.0410 ca         0 BAW      -0.143000
     29 C11         65.5240    37.2790    26.1230 ca         0 BAW      -0.096000
     30 C12         64.5090    34.0590    25.1720 ca         0 BAW      -0.157000
     31 C13         65.7490    33.5380    25.5580 ca         0 BAW      -0.026000
     32 C14         65.8160    32.6440    26.6370 ca         0 BAW      -0.197300
     33 O           64.6760    31.5310    28.4570 oh         0 BAW      -0.494100
     34 O1          62.1370    34.1810    25.5060 oh         0 BAW      -0.494100
     35 N           63.6340    34.7630    22.9810 na         0 BAW      -0.008600
     36 N1          63.7840    35.8550    22.1010 nc         0 BAW      -0.510800
     37 C15         67.3270    37.0050    24.5390 ca         0 BAW       0.135900
     38 C16         68.2090    37.5980    25.4550 ca         0 BAW      -0.169000
     39 F           67.7260    36.6450    23.2960 f          0 BAW      -0.137900
     40 C17         65.0800    38.0270    21.9790 c3         0 BAW      -0.126400
@<TRIPOS>BOND
     1     1    40 1   
     2     2    40 1   
     3     3    22 1   
     4     4    33 1   
     5     5    21 1   
     6     6    19 1   
     7     7    22 1   
     8     8    22 1   
     9     9    40 1   
    10    10    21 1   
    11    11    29 1   
    12    12    28 1   
    13    13    27 1   
    14    14    31 1   
    15    15    38 1   
    16    16    35 1   
    17    17    34 1   
    18    18    19 ar  
    19    18    32 ar  
    20    18    33 1   
    21    19    20 ar  
    22    20    30 ar  
    23    20    34 1   
    24    21    22 1   
    25    21    32 1   
    26    23    25 2   
    27    23    30 1   
    28    23    35 1   
    29    24    25 1   
    30    24    36 2   
    31    24    40 1   
    32    25    26 1   
    33    26    29 ar  
    34    26    37 ar  
    35    27    28 ar  
    36    27    38 ar  
    37    28    29 ar  
    38    30    31 ar  
    39    31    32 ar  
    40    35    36 1   
    41    37    38 ar  
    42    37    39 1   
@<TRIPOS>SUBSTRUCTURE
     1 BAW         1 TEMP              0 ****  ****    0 ROOT
