@<TRIPOS>MOLECULE
XT3
   50    53     1     0     0
SMALL
bcc


@<TRIPOS>ATOM
      1 H21         13.1800   -10.8580    51.7810 hc         0 XT3       0.046700
      2 H22         14.6370   -11.4680    52.5910 hc         0 XT3       0.046700
      3 H19         13.9700   -12.8000    50.5310 hc         0 XT3       0.040450
      4 H08         12.5640    -4.8420    48.9060 ha         0 XT3       0.160000
      5 H20         14.3000   -11.3610    49.5650 hc         0 XT3       0.040450
      6 H01         10.6210    -0.3410    56.0490 ha         0 XT3       0.150000
      7 H05          9.5890    -6.8100    51.2130 ha         0 XT3       0.155000
      8 H04         12.0750    -4.1640    53.2980 ha         0 XT3       0.158000
      9 H11         12.0610    -9.1740    51.2380 h4         0 XT3       0.189000
     10 H03         12.8780    -3.9090    55.6390 ha         0 XT3       0.144000
     11 H09         11.3600    -6.8980    48.1950 h1         0 XT3       0.078200
     12 H02         12.1400    -2.0070    56.9940 ha         0 XT3       0.145000
     13 H10         10.4990    -7.8150    49.4350 h1         0 XT3       0.078200
     14 H07         12.1730    -2.7310    50.1250 ha         0 XT3       0.155000
     15 H14         16.0770    -9.7640    49.6500 hc         0 XT3       0.046700
     16 H13         16.9230    -8.9400    50.9770 hc         0 XT3       0.046700
     17 H12         15.1130    -9.2180    52.4720 hc         0 XT3       0.054700
     18 H15         16.9680   -11.1010    52.1800 hc         0 XT3       0.040450
     19 H18         16.3580   -12.3930    49.4960 hc         0 XT3       0.037700
     20 H17         16.1650   -13.0480    51.1710 hc         0 XT3       0.037700
     21 H16         17.9040   -11.0650    50.6810 hc         0 XT3       0.040450
     22 H06          8.8530    -3.7990    52.9170 ho         0 XT3       0.441000
     23 N            8.9560     0.5500    53.3310 n1         0 XT3      -0.357800
     24 C            9.6680    -0.2730    53.7130 cg         0 XT3       0.242800
     25 C1          10.5070    -1.2770    54.1490 ca         0 XT3      -0.039000
     26 C2          10.9480    -1.1790    55.4340 ca         0 XT3      -0.066000
     27 C3          11.7920    -2.1110    55.9660 ca         0 XT3      -0.160000
     28 C4          12.1990    -3.1700    55.2130 ca         0 XT3      -0.075000
     29 C5          11.7530    -3.3150    53.9010 ca         0 XT3      -0.190000
     30 C6          10.8990    -2.3690    53.3780 ca         0 XT3       0.148100
     31 O           10.4280    -2.4400    52.1080 os         0 XT3      -0.250200
     32 C7          10.6720    -3.5950    51.4030 ca         0 XT3       0.008100
     33 C8           9.9250    -4.7490    51.6780 ca         0 XT3       0.134100
     34 C9          10.1630    -5.9140    50.9780 ca         0 XT3      -0.139000
     35 O1           9.0060    -4.7100    52.6570 oh         0 XT3      -0.488100
     36 C10         11.6080    -3.6260    50.3850 ca         0 XT3      -0.110000
     37 C11         11.8170    -4.8150    49.7000 ca         0 XT3      -0.126000
     38 C12         11.1150    -5.9580    49.9890 ca         0 XT3      -0.090300
     39 C13         11.3190    -7.1180    49.2620 c3         0 XT3       0.100600
     40 N1          12.5900    -7.7130    49.7170 na         0 XT3       0.043400
     41 C14         12.7970    -8.6430    50.6330 cc         0 XT3      -0.229600
     42 N2          13.6490    -7.3750    49.2470 nc         0 XT3      -0.170800
     43 N3          14.5730    -7.9500    49.7360 nd         0 XT3      -0.353000
     44 C15         14.0960    -8.7720    50.6380 cd         0 XT3       0.273600
     45 C16         14.9450    -9.6340    51.4790 c3         0 XT3      -0.075000
     46 C17         16.2670    -9.7720    50.7230 c3         0 XT3      -0.068400
     47 C18         16.8970   -11.0200    51.0950 c3         0 XT3      -0.076400
     48 C19         16.0280   -12.1890    50.5150 c3         0 XT3      -0.076400
     49 C20         14.5560   -11.8820    50.4880 c3         0 XT3      -0.076400
     50 C21         14.2570   -10.9980    51.6840 c3         0 XT3      -0.068400
@<TRIPOS>BOND
     1     1    50 1   
     2     2    50 1   
     3     3    49 1   
     4     4    37 1   
     5     5    49 1   
     6     6    26 1   
     7     7    34 1   
     8     8    29 1   
     9     9    41 1   
    10    10    28 1   
    11    11    39 1   
    12    12    27 1   
    13    13    39 1   
    14    14    36 1   
    15    15    46 1   
    16    16    46 1   
    17    17    45 1   
    18    18    47 1   
    19    19    48 1   
    20    20    48 1   
    21    21    47 1   
    22    22    35 1   
    23    23    24 3   
    24    24    25 1   
    25    25    26 ar  
    26    25    30 ar  
    27    26    27 ar  
    28    27    28 ar  
    29    28    29 ar  
    30    29    30 ar  
    31    30    31 1   
    32    31    32 1   
    33    32    33 ar  
    34    32    36 ar  
    35    33    34 ar  
    36    33    35 1   
    37    34    38 ar  
    38    36    37 ar  
    39    37    38 ar  
    40    38    39 1   
    41    39    40 1   
    42    40    41 1   
    43    40    42 1   
    44    41    44 2   
    45    42    43 2   
    46    43    44 1   
    47    44    45 1   
    48    45    46 1   
    49    45    50 1   
    50    46    47 1   
    51    47    48 1   
    52    48    49 1   
    53    49    50 1   
@<TRIPOS>SUBSTRUCTURE
     1 XT3         1 TEMP              0 ****  ****    0 ROOT
