@<TRIPOS>MOLECULE
XT3
   50    53     1     0     0
SMALL
bcc


@<TRIPOS>ATOM
      1 CAC          9.6680    -0.2730    53.7130 cg       302 XT3       0.242800
      2 CAD         11.7920    -2.1110    55.9660 ca       302 XT3      -0.160000
      3 CAE         12.1990    -3.1700    55.2130 ca       302 XT3      -0.075000
      4 CAF         10.9480    -1.1790    55.4340 ca       302 XT3      -0.066000
      5 CAG         11.7530    -3.3150    53.9010 ca       302 XT3      -0.190000
      6 CAH         11.8170    -4.8150    49.7000 ca       302 XT3      -0.126000
      7 CAI         11.6080    -3.6260    50.3850 ca       302 XT3      -0.110000
      8 CAJ         10.1630    -5.9140    50.9780 ca       302 XT3      -0.139000
      9 CAK         12.7970    -8.6430    50.6330 cc       302 XT3      -0.229600
     10 CAL         16.0280   -12.1890    50.5150 c3       302 XT3      -0.076400
     11 CAM         16.8970   -11.0200    51.0950 c3       302 XT3      -0.076400
     12 CAN         14.5560   -11.8820    50.4880 c3       302 XT3      -0.076400
     13 CAO         16.2670    -9.7720    50.7230 c3       302 XT3      -0.068400
     14 CAP         14.2570   -10.9980    51.6840 c3       302 XT3      -0.068400
     15 CAQ         11.3190    -7.1180    49.2620 c3       302 XT3       0.100600
     16 CAU          9.9250    -4.7490    51.6780 ca       302 XT3       0.134100
     17 CAV         11.1150    -5.9580    49.9890 ca       302 XT3      -0.090300
     18 CAW         10.5070    -1.2770    54.1490 ca       302 XT3      -0.039000
     19 CAX         14.0960    -8.7720    50.6380 cd       302 XT3       0.273600
     20 CAY         10.6720    -3.5950    51.4030 ca       302 XT3       0.008100
     21 CAZ         10.8990    -2.3690    53.3780 ca       302 XT3       0.148100
     22 NAA          8.9560     0.5500    53.3310 n1       302 XT3      -0.357800
     23 NAR         14.5730    -7.9500    49.7360 nd       302 XT3      -0.353000
     24 NAS         13.6490    -7.3750    49.2470 nc       302 XT3      -0.170800
     25 OAB          9.0060    -4.7100    52.6570 oh       302 XT3      -0.488100
     26 OAT         10.4280    -2.4400    52.1080 os       302 XT3      -0.250200
     27 CBA         14.9450    -9.6340    51.4790 c3       302 XT3      -0.075000
     28 NBB         12.5900    -7.7130    49.7170 na       302 XT3       0.043400
     29 H01         12.1400    -2.0070    56.9940 ha       302 XT3       0.145000
     30 H02         12.8780    -3.9090    55.6390 ha       302 XT3       0.144000
     31 H03         10.6210    -0.3410    56.0490 ha       302 XT3       0.150000
     32 H04         12.0750    -4.1640    53.2980 ha       302 XT3       0.158000
     33 H05         12.5640    -4.8420    48.9060 ha       302 XT3       0.160000
     34 H06         12.1730    -2.7310    50.1250 ha       302 XT3       0.155000
     35 H07          9.5890    -6.8100    51.2130 ha       302 XT3       0.155000
     36 H08         12.0610    -9.1740    51.2380 h4       302 XT3       0.189000
     37 H09         16.3430   -12.3430    49.4830 hc       302 XT3       0.037700
     38 H10         16.1860   -13.0750    51.1290 hc       302 XT3       0.037700
     39 H11         17.9110   -11.0670    50.6980 hc       302 XT3       0.040450
     40 H12         16.9500   -11.1000    52.1810 hc       302 XT3       0.040450
     41 H13         13.9700   -12.8000    50.5310 hc       302 XT3       0.040450
     42 H14         14.3000   -11.3610    49.5650 hc       302 XT3       0.040450
     43 H15         16.0790    -9.7620    49.6490 hc       302 XT3       0.046700
     44 H16         16.9230    -8.9400    50.9790 hc       302 XT3       0.046700
     45 H17         14.6310   -11.4680    52.5940 hc       302 XT3       0.046700
     46 H18         13.1800   -10.8560    51.7750 hc       302 XT3       0.046700
     47 H19         10.4950    -7.8150    49.4150 h1       302 XT3       0.078200
     48 H20         11.3760    -6.8860    48.1990 h1       302 XT3       0.078200
     49 H21          8.8530    -3.7990    52.9170 ho       302 XT3       0.441000
     50 H22         15.1130    -9.2180    52.4720 hc       302 XT3       0.054700
@<TRIPOS>BOND
     1     1    18 1   
     2     1    22 3   
     3     2     3 ar  
     4     2     4 ar  
     5     2    29 1   
     6     3     5 ar  
     7     3    30 1   
     8     4    18 ar  
     9     4    31 1   
    10     5    21 ar  
    11     5    32 1   
    12     6     7 ar  
    13     6    17 ar  
    14     6    33 1   
    15     7    20 ar  
    16     7    34 1   
    17     8    16 ar  
    18     8    17 ar  
    19     8    35 1   
    20     9    19 2   
    21     9    28 1   
    22     9    36 1   
    23    10    11 1   
    24    10    12 1   
    25    10    37 1   
    26    10    38 1   
    27    11    13 1   
    28    11    39 1   
    29    11    40 1   
    30    12    14 1   
    31    12    41 1   
    32    12    42 1   
    33    13    27 1   
    34    13    43 1   
    35    13    44 1   
    36    14    27 1   
    37    14    45 1   
    38    14    46 1   
    39    15    17 1   
    40    15    28 1   
    41    15    47 1   
    42    15    48 1   
    43    16    20 ar  
    44    16    25 1   
    45    18    21 ar  
    46    19    23 1   
    47    19    27 1   
    48    20    26 1   
    49    21    26 1   
    50    23    24 2   
    51    24    28 1   
    52    25    49 1   
    53    27    50 1   
@<TRIPOS>SUBSTRUCTURE
     1 XT3         1 TEMP              0 ****  ****    0 ROOT
