@<TRIPOS>MOLECULE
6DL
   30    32     1     0     0
SMALL
bcc


@<TRIPOS>ATOM
      1 C1           1.5760    12.2310    27.4000 ca       301 6DL       0.150100
      2 C2           2.8120    11.6940    27.0600 ca       301 6DL      -0.206000
      3 C3           2.8550    10.8410    25.9660 ca       301 6DL       0.174100
      4 C4           1.7000    10.5610    25.2060 ca       301 6DL      -0.104900
      5 C5           0.4640    11.0710    25.6060 ca       301 6DL      -0.044000
      6 C6           0.4370    11.9340    26.6760 ca       301 6DL      -0.139900
      7 O7           1.4300    13.0360    28.4720 oh       301 6DL      -0.507100
      8 O8           4.0480    10.3390    25.5800 oh       301 6DL      -0.510100
      9 C9           1.7670     9.6080    24.0860 cc       301 6DL       0.018200
     10 N10          2.5300     9.7880    23.0460 nc       301 6DL      -0.244300
     11 N11          2.3830     8.6590    22.2360 nd       301 6DL      -0.413400
     12 C12          1.5400     7.7970    22.8270 c        301 6DL       0.737900
     13 N13          1.1440     8.3590    23.9900 n        301 6DL      -0.278600
     14 C14          0.2210     7.7610    24.8820 ca       301 6DL       0.066600
     15 C15         -1.0920     7.4810    24.4630 ca       301 6DL       0.118900
     16 C16         -2.0010     6.8620    25.3110 ca       301 6DL      -0.168000
     17 C17         -1.5750     6.5020    26.5840 ca       301 6DL      -0.150000
     18 C18         -0.2730     6.7520    27.0130 ca       301 6DL      -0.136000
     19 C19          0.6300     7.3640    26.1560 ca       301 6DL      -0.149000
     20 O20          1.2110     6.7000    22.4030 o        301 6DL      -0.664500
     21 BR          -1.1520    12.8350    27.0950 br       301 6DL      -0.128100
     22 F21         -1.5040     7.8230    23.2290 f        301 6DL      -0.126900
     23 H01          3.7100    11.9330    27.6290 ha       301 6DL       0.155000
     24 H02         -0.4530    10.7930    25.0860 ha       301 6DL       0.163000
     25 H03          1.7170    13.9240    28.2470 ho       301 6DL       0.419000
     26 H04          4.3020    10.7270    24.7400 ho       301 6DL       0.455000
     27 H05         -3.0220     6.6640    24.9870 ha       301 6DL       0.130000
     28 H06         -2.2750     6.0130    27.2620 ha       301 6DL       0.117000
     29 H07          0.0350     6.4670    28.0190 ha       301 6DL       0.120000
     30 H08          1.6580     7.5350    26.4770 ha       301 6DL       0.145000
@<TRIPOS>BOND
     1     1     2 ar  
     2     1     6 ar  
     3     1     7 1   
     4     2     3 ar  
     5     2    23 1   
     6     3     4 ar  
     7     3     8 1   
     8     4     5 ar  
     9     4     9 1   
    10     5     6 ar  
    11     5    24 1   
    12     6    21 1   
    13     7    25 1   
    14     8    26 1   
    15     9    10 1   
    16     9    13 2   
    17    10    11 2   
    18    11    12 1   
    19    12    13 1   
    20    12    20 2   
    21    13    14 1   
    22    14    15 ar  
    23    14    19 ar  
    24    15    16 ar  
    25    15    22 1   
    26    16    17 ar  
    27    16    27 1   
    28    17    18 ar  
    29    17    28 1   
    30    18    19 ar  
    31    18    29 1   
    32    19    30 1   
@<TRIPOS>SUBSTRUCTURE
     1 6DL         1 TEMP              0 ****  ****    0 ROOT
