@<TRIPOS>MOLECULE
6DL
   30    32     1     0     0
SMALL
bcc


@<TRIPOS>ATOM
      1 C1           1.3470    12.0060    27.2120 ca       301 6DL       0.153100
      2 C2           2.5890    11.6620    26.7230 ca       301 6DL      -0.264000
      3 C3           2.6750    10.8240    25.6210 ca       301 6DL       0.197100
      4 C4           1.5210    10.4350    24.9330 ca       301 6DL      -0.106900
      5 C5           0.2770    10.8190    25.4200 ca       301 6DL      -0.051000
      6 C6           0.2200    11.6370    26.5160 ca       301 6DL      -0.087900
      7 O7           1.2350    12.7660    28.3370 oh       301 6DL      -0.499100
      8 O8           3.8970    10.5380    25.1390 oh       301 6DL      -0.508100
      9 C9           1.5600     9.4740    23.8210 cc       301 6DL       0.069200
     10 N10          2.2670     9.6010    22.7320 nc       301 6DL      -0.258300
     11 N11          2.0440     8.4560    21.9600 nd       301 6DL      -0.410400
     12 C12          1.2190     7.6310    22.6250 c        301 6DL       0.742900
     13 N13          0.9060     8.2260    23.7960 n        301 6DL      -0.310600
     14 C14          0.0770     7.6590    24.8110 ca       301 6DL       0.092600
     15 C15          0.6240     6.7360    25.6900 ca       301 6DL       0.075900
     16 C16         -0.1350     6.1470    26.7020 ca       301 6DL      -0.158000
     17 C17         -1.4500     6.5520    26.8970 ca       301 6DL      -0.154000
     18 C18         -2.0140     7.5030    26.0580 ca       301 6DL      -0.137000
     19 C19         -1.2500     8.0320    25.0180 ca       301 6DL      -0.124000
     20 O20          0.8390     6.5430    22.2330 o        301 6DL      -0.701500
     21 BR          -1.4460    12.3770    26.9090 br       301 6DL      -0.109100
     22 F21          1.8760     6.2920    25.4430 f        301 6DL      -0.143900
     23 H01          3.4930    12.0440    27.1970 ha       301 6DL       0.139000
     24 H02         -0.6380    10.4750    24.9370 ha       301 6DL       0.158000
     25 H03          1.6250    13.6290    28.1810 ho       301 6DL       0.411000
     26 H04          4.1480    11.1990    24.4900 ho       301 6DL       0.457000
     27 H05          0.3010     5.3740    27.3350 ha       301 6DL       0.129000
     28 H06         -2.0380     6.1230    27.7080 ha       301 6DL       0.117000
     29 H07         -3.0420     7.8320    26.2100 ha       301 6DL       0.120000
     30 H08         -1.7050     8.7600    24.3460 ha       301 6DL       0.162000
@<TRIPOS>BOND
     1     1     2 ar  
     2     1     6 ar  
     3     1     7 1   
     4     2     3 ar  
     5     2    23 1   
     6     3     4 ar  
     7     3     8 1   
     8     4     5 ar  
     9     4     9 1   
    10     5     6 ar  
    11     5    24 1   
    12     6    21 1   
    13     7    25 1   
    14     8    26 1   
    15     9    10 1   
    16     9    13 2   
    17    10    11 2   
    18    11    12 1   
    19    12    13 1   
    20    12    20 2   
    21    13    14 1   
    22    14    15 ar  
    23    14    19 ar  
    24    15    16 ar  
    25    15    22 1   
    26    16    17 ar  
    27    16    27 1   
    28    17    18 ar  
    29    17    28 1   
    30    18    19 ar  
    31    18    29 1   
    32    19    30 1   
@<TRIPOS>SUBSTRUCTURE
     1 6DL         1 TEMP              0 ****  ****    0 ROOT
