@<TRIPOS>MOLECULE
XTW
   40    43     1     0     0
SMALL
bcc


@<TRIPOS>ATOM
      1 CAC        -30.3680     2.8370   -43.9980 ca       302 XTW      -0.139000
      2 CAD        -29.6180     3.9710   -44.2400 ca       302 XTW      -0.103000
      3 CAE        -30.1680     2.0840   -42.8440 ca       302 XTW      -0.106000
      4 CAF        -28.6750     4.3810   -43.3170 ca       302 XTW      -0.165000
      5 CAG        -24.9260     6.1950   -40.7800 ca       302 XTW      -0.120000
      6 CAH        -25.6060     5.0320   -41.0050 ca       302 XTW      -0.120000
      7 CAI        -27.0150     7.3940   -40.5030 ca       302 XTW      -0.136000
      8 CAJ        -24.9030     9.2170   -42.8290 cc       302 XTW      -0.224600
      9 CAK        -23.6610    11.3840   -45.1890 cx       302 XTW      -0.127400
     10 CAL        -24.9860    10.8850   -45.6500 cx       302 XTW      -0.127400
     11 CAM        -24.8810     8.5260   -40.3240 c3       302 XTW       0.101600
     12 CAQ        -27.6930     6.2180   -40.7420 ca       302 XTW       0.126100
     13 CAR        -25.6180     7.3780   -40.5310 ca       302 XTW      -0.100300
     14 CAS        -29.2330     2.4740   -41.9270 ca       302 XTW       0.001400
     15 CAT        -23.9250     9.4560   -43.6730 cd       302 XTW       0.294600
     16 CAU        -26.9780     5.0600   -41.0090 ca       302 XTW       0.023100
     17 CAV        -28.5010     3.6280   -42.1800 ca       302 XTW       0.108100
     18 CAW        -23.9580     9.8960   -45.0970 cx       302 XTW      -0.140000
     19 NAN        -22.8000     9.2920   -43.0210 nd       302 XTW      -0.349000
     20 NAO        -23.0710     8.9690   -41.8120 nc       302 XTW      -0.168800
     21 NAX        -24.2860     8.9110   -41.6650 na       302 XTW       0.045400
     22 OAA        -29.0360     6.1490   -40.7500 oh       302 XTW      -0.491100
     23 OAP        -27.6260     3.9040   -41.1910 os       302 XTW      -0.251200
     24 CL         -28.9320     1.5180   -40.3990 cl       302 XTW      -0.067400
     25 H01        -31.1250     2.5280   -44.7190 ha       302 XTW       0.142000
     26 H02        -29.7690     4.5410   -45.1570 ha       302 XTW       0.142000
     27 H03        -30.7570     1.1830   -42.6720 ha       302 XTW       0.151000
     28 H04        -28.0830     5.2800   -43.4860 ha       302 XTW       0.154000
     29 H05        -23.8360     6.1970   -40.7950 ha       302 XTW       0.158000
     30 H06        -25.0690     4.0990   -41.1780 ha       302 XTW       0.155000
     31 H07        -27.5570     8.3170   -40.2970 ha       302 XTW       0.153000
     32 H08        -25.9750     9.2570   -43.0240 h4       302 XTW       0.189000
     33 H09        -23.3360    12.1440   -44.4780 hc       302 XTW       0.072700
     34 H10        -22.9350    11.7490   -45.9160 hc       302 XTW       0.072700
     35 H11        -25.5560    10.9630   -46.5760 hc       302 XTW       0.072700
     36 H12        -25.8840    11.1150   -45.0770 hc       302 XTW       0.072700
     37 H13        -25.5060     9.3270   -39.9290 h1       302 XTW       0.077700
     38 H14        -24.0880     8.3380   -39.6000 h1       302 XTW       0.077700
     39 H15        -23.6290     8.9320   -45.4840 hc       302 XTW       0.104700
     40 H16        -29.3590     6.0800   -39.8490 ho       302 XTW       0.441000
@<TRIPOS>BOND
     1     1     2 ar  
     2     1     3 ar  
     3     1    25 1   
     4     2     4 ar  
     5     2    26 1   
     6     3    14 ar  
     7     3    27 1   
     8     4    17 ar  
     9     4    28 1   
    10     5     6 ar  
    11     5    13 ar  
    12     5    29 1   
    13     6    16 ar  
    14     6    30 1   
    15     7    12 ar  
    16     7    13 ar  
    17     7    31 1   
    18     8    15 2   
    19     8    21 1   
    20     8    32 1   
    21     9    10 1   
    22     9    18 1   
    23     9    33 1   
    24     9    34 1   
    25    10    18 1   
    26    10    35 1   
    27    10    36 1   
    28    11    13 1   
    29    11    21 1   
    30    11    37 1   
    31    11    38 1   
    32    12    16 ar  
    33    12    22 1   
    34    14    17 ar  
    35    14    24 1   
    36    15    18 1   
    37    15    19 1   
    38    16    23 1   
    39    17    23 1   
    40    18    39 1   
    41    19    20 2   
    42    20    21 1   
    43    22    40 1   
@<TRIPOS>SUBSTRUCTURE
     1 XTW         1 TEMP              0 ****  ****    0 ROOT
