@<TRIPOS>MOLECULE
TCU
   45    46     1     0     0
SMALL
bcc


@<TRIPOS>ATOM
      1 C1         -15.3910   -35.1190    17.5510 ca      1271 TCU      -0.152000
      2 C2         -15.5180   -36.4760    17.8320 ca      1271 TCU      -0.046300
      3 C3         -16.6730   -37.2000    17.4710 ca      1271 TCU      -0.153000
      4 C4         -17.7590   -36.5890    16.8150 ca      1271 TCU      -0.107000
      5 C5         -17.6460   -35.2260    16.5070 ca      1271 TCU      -0.000900
      6 C6         -16.4270   -34.4610    16.8810 ca      1271 TCU       0.132100
      7 O7         -18.6350   -34.5590    15.8570 os      1271 TCU      -0.260200
      8 C8         -18.4750   -34.4700    14.4920 ca      1271 TCU       0.102100
      9 C9         -17.3620   -34.9760    13.8270 ca      1271 TCU      -0.176000
     10 C10        -17.2510   -34.8340    12.4420 ca      1271 TCU      -0.107000
     11 C11        -18.2520   -34.2060    11.6980 ca      1271 TCU      -0.149000
     12 C12        -19.3930   -33.7060    12.3230 ca      1271 TCU      -0.110000
     13 C13        -19.5230   -33.8060    13.7040 ca      1271 TCU      -0.089300
     14 C14        -20.7230   -33.2820    14.4340 c3      1271 TCU      -0.046800
     15 C16        -14.3680   -37.1940    18.5250 c3      1271 TCU      -0.040100
     16 C17        -13.5770   -37.7830    17.3480 c3      1271 TCU      -0.076400
     17 O17        -16.3640   -33.1310    16.5740 oh      1271 TCU      -0.492100
     18 C18        -12.2750   -38.4580    17.7440 c3      1271 TCU      -0.079400
     19 C19        -11.2390   -38.4450    16.6190 c3      1271 TCU      -0.077400
     20 C20        -11.6780   -39.2280    15.3910 c3      1271 TCU      -0.080400
     21 C21        -11.4570   -40.7170    15.5650 c3      1271 TCU      -0.092100
     22 H01        -14.4950   -34.5760    17.8500 ha      1271 TCU       0.154000
     23 H02        -16.7270   -38.2630    17.7060 ha      1271 TCU       0.138000
     24 H03        -18.6540   -37.1550    16.5560 ha      1271 TCU       0.149000
     25 H04        -16.5770   -35.4830    14.3870 ha      1271 TCU       0.149000
     26 H05        -16.3680   -35.2200    11.9330 ha      1271 TCU       0.135000
     27 H06        -18.1400   -34.1060    10.6180 ha      1271 TCU       0.134000
     28 H07        -20.1800   -33.2380    11.7320 ha      1271 TCU       0.135000
     29 H08        -21.5720   -33.9420    14.2560 hc      1271 TCU       0.048700
     30 H09        -20.5110   -33.2430    15.5020 hc      1271 TCU       0.048700
     31 H10        -20.9600   -32.2810    14.0740 hc      1271 TCU       0.048700
     32 H11        -14.6980   -37.9450    19.2420 hc      1271 TCU       0.050700
     33 H12        -13.7580   -36.4970    19.1000 hc      1271 TCU       0.050700
     34 H13        -13.3100   -36.9460    16.7020 hc      1271 TCU       0.045700
     35 H14        -14.2060   -38.5200    16.8480 hc      1271 TCU       0.045700
     36 H15        -16.5740   -32.6120    17.3540 ho      1271 TCU       0.437000
     37 H16        -12.5000   -39.5000    17.9730 hc      1271 TCU       0.039700
     38 H17        -11.8600   -37.9380    18.6070 hc      1271 TCU       0.039700
     39 H18        -10.3380   -38.9240    17.0030 hc      1271 TCU       0.039700
     40 H19        -11.0590   -37.4110    16.3250 hc      1271 TCU       0.039700
     41 H20        -11.0790   -38.8930    14.5440 hc      1271 TCU       0.039200
     42 H21        -12.7380   -39.0460    15.2160 hc      1271 TCU       0.039200
     43 H22        -10.5430   -40.8840    16.1350 hc      1271 TCU       0.032367
     44 H23        -12.3020   -41.1500    16.0990 hc      1271 TCU       0.032367
     45 H24        -11.3650   -41.1880    14.5860 hc      1271 TCU       0.032367
@<TRIPOS>BOND
     1     1     2 ar  
     2     1     6 ar  
     3     1    22 1   
     4     2     3 ar  
     5     2    15 1   
     6     3     4 ar  
     7     3    23 1   
     8     4     5 ar  
     9     4    24 1   
    10     5     6 ar  
    11     5     7 1   
    12     6    17 1   
    13     7     8 1   
    14     8     9 ar  
    15     8    13 ar  
    16     9    10 ar  
    17     9    25 1   
    18    10    11 ar  
    19    10    26 1   
    20    11    12 ar  
    21    11    27 1   
    22    12    13 ar  
    23    12    28 1   
    24    13    14 1   
    25    14    29 1   
    26    14    30 1   
    27    14    31 1   
    28    15    16 1   
    29    15    32 1   
    30    15    33 1   
    31    16    18 1   
    32    16    34 1   
    33    16    35 1   
    34    17    36 1   
    35    18    19 1   
    36    18    37 1   
    37    18    38 1   
    38    19    20 1   
    39    19    39 1   
    40    19    40 1   
    41    20    21 1   
    42    20    41 1   
    43    20    42 1   
    44    21    43 1   
    45    21    44 1   
    46    21    45 1   
@<TRIPOS>SUBSTRUCTURE
     1 TCU         1 TEMP              0 ****  ****    0 ROOT
