@<TRIPOS>MOLECULE
TCU
   45    46     1     0     0
SMALL
bcc


@<TRIPOS>ATOM
      1 H05        -13.3100   -36.9460    16.7020 hc         0 TCU       0.045700
      2 H07        -12.5000   -39.5000    17.9730 hc         0 TCU       0.039700
      3 H09        -10.3380   -38.9240    17.0030 hc         0 TCU       0.039700
      4 H06        -14.2060   -38.5200    16.8480 hc         0 TCU       0.045700
      5 H11        -11.0790   -38.8930    14.5440 hc         0 TCU       0.039200
      6 H10        -11.0590   -37.4110    16.3250 hc         0 TCU       0.039700
      7 H14        -12.3020   -41.1500    16.0990 hc         0 TCU       0.032367
      8 H13        -10.5430   -40.8840    16.1350 hc         0 TCU       0.032367
      9 H12        -12.7380   -39.0460    15.2160 hc         0 TCU       0.039200
     10 H08        -11.8600   -37.9380    18.6070 hc         0 TCU       0.039700
     11 H18        -16.5770   -35.4830    14.3870 ha         0 TCU       0.149000
     12 H17        -18.6540   -37.1550    16.5560 ha         0 TCU       0.149000
     13 H16        -16.7270   -38.2630    17.7060 ha         0 TCU       0.138000
     14 H19        -16.3680   -35.2200    11.9330 ha         0 TCU       0.135000
     15 H23        -20.5110   -33.2430    15.5020 hc         0 TCU       0.048700
     16 H22        -21.5720   -33.9420    14.2560 hc         0 TCU       0.048700
     17 H21        -20.1800   -33.2380    11.7320 ha         0 TCU       0.135000
     18 H24        -20.9600   -32.2810    14.0740 hc         0 TCU       0.048700
     19 H20        -18.1400   -34.1060    10.6180 ha         0 TCU       0.134000
     20 H15        -11.3650   -41.1880    14.5860 hc         0 TCU       0.032367
     21 H01        -16.5740   -32.6120    17.3540 ho         0 TCU       0.437000
     22 H02        -14.4950   -34.5760    17.8500 ha         0 TCU       0.154000
     23 H03        -14.6980   -37.9450    19.2420 hc         0 TCU       0.050700
     24 H04        -13.7580   -36.4970    19.1000 hc         0 TCU       0.050700
     25 O          -16.3640   -33.1310    16.5740 oh         0 TCU      -0.492100
     26 C          -16.4270   -34.4610    16.8810 ca         0 TCU       0.132100
     27 C1         -15.3910   -35.1190    17.5510 ca         0 TCU      -0.152000
     28 C2         -15.5180   -36.4760    17.8320 ca         0 TCU      -0.046300
     29 C3         -14.3680   -37.1940    18.5250 c3         0 TCU      -0.040100
     30 C4         -13.5770   -37.7830    17.3480 c3         0 TCU      -0.076400
     31 C5         -12.2750   -38.4580    17.7440 c3         0 TCU      -0.079400
     32 C6         -11.2390   -38.4450    16.6190 c3         0 TCU      -0.077400
     33 C7         -11.6780   -39.2280    15.3910 c3         0 TCU      -0.080400
     34 C8         -11.4570   -40.7170    15.5650 c3         0 TCU      -0.092100
     35 C9         -16.6730   -37.2000    17.4710 ca         0 TCU      -0.153000
     36 C10        -17.7590   -36.5890    16.8150 ca         0 TCU      -0.107000
     37 C11        -17.6460   -35.2260    16.5070 ca         0 TCU      -0.000900
     38 O1         -18.6350   -34.5590    15.8570 os         0 TCU      -0.260200
     39 C12        -18.4750   -34.4700    14.4920 ca         0 TCU       0.102100
     40 C13        -17.3620   -34.9760    13.8270 ca         0 TCU      -0.176000
     41 C14        -17.2510   -34.8340    12.4420 ca         0 TCU      -0.107000
     42 C15        -18.2520   -34.2060    11.6980 ca         0 TCU      -0.149000
     43 C16        -19.3930   -33.7060    12.3230 ca         0 TCU      -0.110000
     44 C17        -19.5230   -33.8060    13.7040 ca         0 TCU      -0.089300
     45 C18        -20.7230   -33.2820    14.4340 c3         0 TCU      -0.046800
@<TRIPOS>BOND
     1     1    30 1   
     2     2    31 1   
     3     3    32 1   
     4     4    30 1   
     5     5    33 1   
     6     6    32 1   
     7     7    34 1   
     8     8    34 1   
     9     9    33 1   
    10    10    31 1   
    11    11    40 1   
    12    12    36 1   
    13    13    35 1   
    14    14    41 1   
    15    15    45 1   
    16    16    45 1   
    17    17    43 1   
    18    18    45 1   
    19    19    42 1   
    20    20    34 1   
    21    21    25 1   
    22    22    27 1   
    23    23    29 1   
    24    24    29 1   
    25    25    26 1   
    26    26    27 ar  
    27    26    37 ar  
    28    27    28 ar  
    29    28    29 1   
    30    28    35 ar  
    31    29    30 1   
    32    30    31 1   
    33    31    32 1   
    34    32    33 1   
    35    33    34 1   
    36    35    36 ar  
    37    36    37 ar  
    38    37    38 1   
    39    38    39 1   
    40    39    40 ar  
    41    39    44 ar  
    42    40    41 ar  
    43    41    42 ar  
    44    42    43 ar  
    45    43    44 ar  
    46    44    45 1   
@<TRIPOS>SUBSTRUCTURE
     1 TCU         1 TEMP              0 ****  ****    0 ROOT
