@<TRIPOS>MOLECULE
70K
   63    67     1     0     0
SMALL
bcc


@<TRIPOS>ATOM
      1 C1          -0.7850    10.5300    27.0760 c        301 70K       0.679700
      2 N2          -0.2150     9.2900    27.2800 n        301 70K      -0.378000
      3 O3          -1.5100    11.0400    27.9280 o        301 70K      -0.621100
      4 C4          -0.6570    11.2510    25.7730 ca       301 70K      -0.190600
      5 C5           0.5990    11.5480    25.1840 ca       301 70K      -0.012000
      6 C6          -1.7860    12.1140    23.7670 ca       301 70K      -0.138000
      7 C7          -1.8310    11.5030    25.0170 ca       301 70K       0.158100
      8 O8          -3.0360    11.1990    25.5540 oh       301 70K      -0.511100
      9 C9          -0.5520    12.4360    23.1940 ca       301 70K      -0.046000
     10 C10          0.6410    12.1150    23.9110 ca       301 70K      -0.132000
     11 C11          1.7110    12.5670    23.0140 cc       301 70K      -0.155300
     12 N12          1.1330    13.0290    21.9160 na       301 70K       0.096800
     13 N13         -0.1530    12.9890    21.9910 nc       301 70K      -0.262400
     14 C14          3.1560    12.3810    23.2680 c        301 70K       0.697300
     15 O15          3.6290    11.3750    22.7580 o        301 70K      -0.607100
     16 C16          0.5780     8.6330    26.3080 ca       301 70K       0.000600
     17 C17          1.9600     8.5060    26.5450 ca       301 70K      -0.110500
     18 C18          2.2010     7.3670    24.3940 ca       301 70K       0.143600
     19 C19          0.8090     7.4990    24.1530 ca       301 70K      -0.159500
     20 C20          2.7390     7.8850    25.5850 ca       301 70K      -0.159500
     21 C21          0.0260     8.1460    25.1070 ca       301 70K      -0.110500
     22 C22         -0.3720     8.5440    28.5420 c3       301 70K       0.080300
     23 N23          3.0840     6.7290    23.4790 nh       301 70K      -0.633000
     24 C24          2.4920     6.1710    22.2290 c3       301 70K       0.150800
     25 C25          3.5930     5.6840    21.2640 c3       301 70K       0.123400
     26 O26          4.4450     4.8050    22.0130 os       301 70K      -0.412600
     27 C27          5.1710     5.4600    23.0670 c3       301 70K       0.123400
     28 C28          4.1470     5.9040    24.1250 c3       301 70K       0.150800
     29 C29          3.3510    14.4570    24.6110 c3       301 70K       0.089500
     30 N30          3.9220    13.2030    24.0450 n        301 70K      -0.457800
     31 C31          5.3810    12.8940    24.1640 c3       301 70K       0.089500
     32 C32          6.0420    13.4860    25.4180 c3       301 70K      -0.094400
     33 C33          5.6930    14.9800    25.4940 c3       301 70K      -0.080400
     34 C34          4.1760    15.1350    25.7210 c3       301 70K      -0.094400
     35 H01          1.5230    11.3350    25.7220 ha       301 70K       0.152000
     36 H02         -2.7110    12.3410    23.2360 ha       301 70K       0.169000
     37 H03         -3.2800    11.8700    26.1960 ho       301 70K       0.450000
     38 H04          1.6410    13.3730    21.1130 hn       301 70K       0.339700
     39 H05          2.4060     8.8880    27.4630 ha       301 70K       0.141500
     40 H06          0.3620     7.1030    23.2410 ha       301 70K       0.140000
     41 H07          3.8110     7.7940    25.7590 ha       301 70K       0.140000
     42 H08         -1.0400     8.2780    24.9190 ha       301 70K       0.141500
     43 H09         -1.4220     8.2870    28.6830 h1       301 70K       0.050367
     44 H10          0.2220     7.6310    28.5020 h1       301 70K       0.050367
     45 H11         -0.0340     9.1620    29.3740 h1       301 70K       0.050367
     46 H12          1.9210     6.9570    21.7350 h1       301 70K       0.048450
     47 H13          1.8440     5.3320    22.4840 h1       301 70K       0.048450
     48 H14          4.1580     6.5250    20.8610 h1       301 70K       0.057950
     49 H15          3.1470     5.1500    20.4250 h1       301 70K       0.057950
     50 H16          5.7200     6.3180    22.6800 h1       301 70K       0.057950
     51 H17          5.8900     4.7700    23.5100 h1       301 70K       0.057950
     52 H18          3.6940     5.0240    24.5810 h1       301 70K       0.048450
     53 H19          4.6490     6.4940    24.8920 h1       301 70K       0.048450
     54 H20          2.4120    14.1650    25.0810 h1       301 70K       0.058950
     55 H21          3.2390    15.1710    23.7950 h1       301 70K       0.058950
     56 H22          5.8720    13.3480    23.3030 h1       301 70K       0.058950
     57 H23          5.5020    11.8110    24.1900 h1       301 70K       0.058950
     58 H24          7.1230    13.3580    25.3660 hc       301 70K       0.051700
     59 H25          5.6700    12.9750    26.3060 hc       301 70K       0.051700
     60 H26          5.9760    15.4700    24.5620 hc       301 70K       0.045200
     61 H27          6.2350    15.4400    26.3200 hc       301 70K       0.045200
     62 H28          3.9420    16.2000    25.7090 hc       301 70K       0.051700
     63 H29          3.9150    14.6840    26.6790 hc       301 70K       0.051700
@<TRIPOS>BOND
     1     1     2 1   
     2     1     3 2   
     3     1     4 1   
     4     2    16 1   
     5     2    22 1   
     6     4     5 ar  
     7     4     7 ar  
     8     5    10 ar  
     9     5    35 1   
    10     6     7 ar  
    11     6     9 ar  
    12     6    36 1   
    13     7     8 1   
    14     8    37 1   
    15     9    10 ar  
    16     9    13 2   
    17    10    11 2   
    18    11    12 1   
    19    11    14 1   
    20    12    13 1   
    21    12    38 1   
    22    14    15 2   
    23    14    30 1   
    24    16    17 ar  
    25    16    21 ar  
    26    17    20 ar  
    27    17    39 1   
    28    18    19 ar  
    29    18    20 ar  
    30    18    23 1   
    31    19    21 ar  
    32    19    40 1   
    33    20    41 1   
    34    21    42 1   
    35    22    43 1   
    36    22    44 1   
    37    22    45 1   
    38    23    24 1   
    39    23    28 1   
    40    24    25 1   
    41    24    46 1   
    42    24    47 1   
    43    25    26 1   
    44    25    48 1   
    45    25    49 1   
    46    26    27 1   
    47    27    28 1   
    48    27    50 1   
    49    27    51 1   
    50    28    52 1   
    51    28    53 1   
    52    29    30 1   
    53    29    34 1   
    54    29    54 1   
    55    29    55 1   
    56    30    31 1   
    57    31    32 1   
    58    31    56 1   
    59    31    57 1   
    60    32    33 1   
    61    32    58 1   
    62    32    59 1   
    63    33    34 1   
    64    33    60 1   
    65    33    61 1   
    66    34    62 1   
    67    34    63 1   
@<TRIPOS>SUBSTRUCTURE
     1 70K         1 TEMP              0 ****  ****    0 ROOT
