@<TRIPOS>MOLECULE
70K
   63    67     1     0     0
SMALL
bcc


@<TRIPOS>ATOM
      1 H11          5.4690    11.8100    24.2410 h1         0 70K       0.058950
      2 H06         -0.0340     9.1620    29.3740 h1         0 70K       0.050367
      3 H15          5.9760    15.4700    24.5620 hc         0 70K       0.045200
      4 H04         -1.4220     8.2870    28.6830 h1         0 70K       0.050367
      5 H03         -1.0400     8.2780    24.9190 ha         0 70K       0.141500
      6 H02          3.8110     7.7940    25.7590 ha         0 70K       0.140000
      7 H14          5.6700    12.9750    26.3060 hc         0 70K       0.051700
      8 H13          7.1230    13.3580    25.3660 hc         0 70K       0.051700
      9 H12          5.8900    13.2930    23.2860 h1         0 70K       0.058950
     10 H07          1.9210     6.9570    21.7350 h1         0 70K       0.048450
     11 H10          5.7000     6.3280    22.6720 h1         0 70K       0.057950
     12 H09          5.9070     4.7850    23.5040 h1         0 70K       0.057950
     13 H20         -2.7110    12.3410    23.2360 ha         0 70K       0.169000
     14 H08          1.8440     5.3320    22.4840 h1         0 70K       0.048450
     15 H05          0.2220     7.6310    28.5020 h1         0 70K       0.050367
     16 H01          0.3620     7.1030    23.2410 ha         0 70K       0.140000
     17 H29          2.3690    14.2210    25.0210 h1         0 70K       0.058950
     18 H16          6.2350    15.4400    26.3200 hc         0 70K       0.045200
     19 H19          1.5230    11.3350    25.7220 ha         0 70K       0.152000
     20 H18          3.9150    14.6840    26.6790 hc         0 70K       0.051700
     21 H17          3.9420    16.2000    25.7090 hc         0 70K       0.051700
     22 H28          3.3300    15.1680    23.7850 h1         0 70K       0.058950
     23 H23          2.4060     8.8880    27.4630 ha         0 70K       0.141500
     24 H22          1.6410    13.3730    21.1130 hn         0 70K       0.339700
     25 H21         -3.2800    11.8700    26.1960 ho         0 70K       0.450000
     26 H24          4.1580     6.5250    20.8610 h1         0 70K       0.057950
     27 H27          4.6490     6.4940    24.8920 h1         0 70K       0.048450
     28 H26          3.6940     5.0240    24.5810 h1         0 70K       0.048450
     29 H25          3.1470     5.1500    20.4250 h1         0 70K       0.057950
     30 C           -0.7850    10.5300    27.0760 c          0 70K       0.679700
     31 C1          -1.8310    11.5030    25.0170 ca         0 70K       0.158100
     32 C2          -0.5520    12.4360    23.1940 ca         0 70K      -0.046000
     33 C3           0.6410    12.1150    23.9110 ca         0 70K      -0.132000
     34 C4           1.7110    12.5670    23.0140 cc         0 70K      -0.155300
     35 C5           3.1560    12.3810    23.2680 c          0 70K       0.697300
     36 C6           0.5780     8.6330    26.3080 ca         0 70K       0.000600
     37 C7           0.8090     7.4990    24.1530 ca         0 70K      -0.159500
     38 C8           2.7390     7.8850    25.5850 ca         0 70K      -0.159500
     39 C9           0.0260     8.1460    25.1070 ca         0 70K      -0.110500
     40 C10         -0.3720     8.5440    28.5420 c3         0 70K       0.080300
     41 N            3.0840     6.7290    23.4790 nh         0 70K      -0.633000
     42 C11          2.4920     6.1710    22.2290 c3         0 70K       0.150800
     43 C12          5.1710     5.4600    23.0670 c3         0 70K       0.123400
     44 C13          5.3810    12.8940    24.1640 c3         0 70K       0.089500
     45 C14          6.0420    13.4860    25.4180 c3         0 70K      -0.094400
     46 C15          5.6930    14.9800    25.4940 c3         0 70K      -0.080400
     47 C16          4.1760    15.1350    25.7210 c3         0 70K      -0.094400
     48 N1          -0.2150     9.2900    27.2800 n          0 70K      -0.378000
     49 O           -1.5100    11.0400    27.9280 o          0 70K      -0.621100
     50 C17         -0.6570    11.2510    25.7730 ca         0 70K      -0.190600
     51 C18          0.5990    11.5480    25.1840 ca         0 70K      -0.012000
     52 C19         -1.7860    12.1140    23.7670 ca         0 70K      -0.138000
     53 O1          -3.0360    11.1990    25.5540 oh         0 70K      -0.511100
     54 N2           1.1330    13.0290    21.9160 na         0 70K       0.095800
     55 N3          -0.1530    12.9890    21.9910 nc         0 70K      -0.262400
     56 O2           3.6290    11.3750    22.7580 o          0 70K      -0.607100
     57 C20          1.9600     8.5060    26.5450 ca         0 70K      -0.110500
     58 C21          2.2010     7.3670    24.3940 ca         0 70K       0.143600
     59 C22          3.5930     5.6840    21.2640 c3         0 70K       0.123400
     60 O3           4.4450     4.8050    22.0130 os         0 70K      -0.412600
     61 C23          4.1470     5.9040    24.1250 c3         0 70K       0.150800
     62 C24          3.3510    14.4570    24.6110 c3         0 70K       0.089500
     63 N4           3.9220    13.2030    24.0450 n          0 70K      -0.457800
@<TRIPOS>BOND
     1     1    44 1   
     2     2    40 1   
     3     3    46 1   
     4     4    40 1   
     5     5    39 1   
     6     6    38 1   
     7     7    45 1   
     8     8    45 1   
     9     9    44 1   
    10    10    42 1   
    11    11    43 1   
    12    12    43 1   
    13    13    52 1   
    14    14    42 1   
    15    15    40 1   
    16    16    37 1   
    17    17    62 1   
    18    18    46 1   
    19    19    51 1   
    20    20    47 1   
    21    21    47 1   
    22    22    62 1   
    23    23    57 1   
    24    24    54 1   
    25    25    53 1   
    26    26    59 1   
    27    27    61 1   
    28    28    61 1   
    29    29    59 1   
    30    30    48 1   
    31    30    49 2   
    32    30    50 1   
    33    31    50 ar  
    34    31    52 ar  
    35    31    53 1   
    36    32    33 ar  
    37    32    52 ar  
    38    32    55 2   
    39    33    34 2   
    40    33    51 ar  
    41    34    35 1   
    42    34    54 1   
    43    35    56 2   
    44    35    63 1   
    45    36    39 ar  
    46    36    48 1   
    47    36    57 ar  
    48    37    39 ar  
    49    37    58 ar  
    50    38    57 ar  
    51    38    58 ar  
    52    40    48 1   
    53    41    42 1   
    54    41    58 1   
    55    41    61 1   
    56    42    59 1   
    57    43    60 1   
    58    43    61 1   
    59    44    45 1   
    60    44    63 1   
    61    45    46 1   
    62    46    47 1   
    63    47    62 1   
    64    50    51 ar  
    65    54    55 1   
    66    59    60 1   
    67    62    63 1   
@<TRIPOS>SUBSTRUCTURE
     1 70K         1 TEMP              0 ****  ****    0 ROOT
