@<TRIPOS>MOLECULE
/web/media/ligands/5UGU_ligand.pdb
 25 28 0 0 0
SMALL
GASTEIGER

@<TRIPOS>ATOM
      1 N         -22.3110    4.9240  -10.0370 N.1     1  UNL1       -0.1907
      2 C         -21.5590    5.4970  -10.4580 C.1     1  UNL1        0.1035
      3 C         -20.5180    6.2980  -11.0440 C.ar    1  UNL1        0.1029
      4 C         -20.5950    7.6770  -10.8630 C.ar    1  UNL1        0.0134
      5 C         -19.6320    8.5130  -11.4180 C.ar    1  UNL1        0.0009
      6 C         -18.6140    7.8780  -12.1280 C.ar    1  UNL1        0.0032
      7 C         -18.5290    6.5030  -12.3890 C.ar    1  UNL1        0.0382
      8 C         -19.4860    5.6960  -11.7850 C.ar    1  UNL1        0.1549
      9 O         -19.5380    4.3270  -11.9050 O.3     1  UNL1       -0.4496
     10 C         -18.3840    3.7170  -12.3910 C.ar    1  UNL1        0.1839
     11 C         -17.2070    3.6950  -11.5980 C.ar    1  UNL1        0.2296
     12 C         -16.0720    3.0950  -12.1450 C.ar    1  UNL1        0.0429
     13 O         -17.1910    4.3300  -10.3760 O.3     1  UNL1       -0.2833
     14 C         -18.3680    3.1390  -13.6460 C.ar    1  UNL1        0.0406
     15 C         -17.2450    2.4950  -14.1530 C.ar    1  UNL1        0.0010
     16 C         -16.0600    2.5040  -13.4050 C.ar    1  UNL1        0.0055
     17 C         -14.9160    1.8450  -13.8960 C.3     1  UNL1        0.1557
     18 N         -14.2500    2.6390  -14.9380 N.ar    1  UNL1       -0.2261
     19 C         -13.6200    3.8190  -14.9300 C.ar    1  UNL1        0.1135
     20 N         -14.2550    2.1850  -16.1330 N.ar    1  UNL1       -0.0638
     21 N         -13.7120    2.9770  -16.9250 N.ar    1  UNL1       -0.1331
     22 C         -13.2830    3.9930  -16.2210 C.ar    1  UNL1        0.1005
     23 C         -12.5070    5.1070  -16.8960 C.3     1  UNL1        0.0437
     24 C         -11.4950    5.9030  -16.1500 C.3     1  UNL1        0.0064
     25 C         -12.8470    6.5040  -16.4400 C.3     1  UNL1        0.0064
@<TRIPOS>BOND
     1     2     1    3
     2     3     4   ar
     3     3     2    1
     4     5     4   ar
     5     6     5   ar
     6     7     6   ar
     7     7     8   ar
     8     8     3   ar
     9     9     8    1
    10    10     9    1
    11    10    11   ar
    12    11    13    1
    13    12    11   ar
    14    14    10   ar
    15    15    14   ar
    16    15    16   ar
    17    16    12   ar
    18    17    16    1
    19    18    19   ar
    20    18    17    1
    21    20    18   ar
    22    21    22   ar
    23    21    20   ar
    24    22    19   ar
    25    23    25    1
    26    23    22    1
    27    23    24    1
    28    25    24    1
