@<TRIPOS>MOLECULE
FMM
   66    70     1     0     0
SMALL
bcc


@<TRIPOS>ATOM
      1 H18         17.7750    36.0460    42.8880 ha         0 FMM       0.146000
      2 H16         17.1450    33.3490    38.8730 hn         0 FMM       0.478800
      3 H17         17.6930    35.4990    40.4640 ha         0 FMM       0.156000
      4 H02         22.8400    35.5090    31.4370 h1         0 FMM       0.127367
      5 H21         17.5460    38.6340    45.5670 ha         0 FMM       0.135000
      6 H22         15.9970    40.5400    45.3120 ha         0 FMM       0.136000
      7 H26         17.1690    32.5950    37.2650 ha         0 FMM       0.172000
      8 H23         13.6730    40.1550    44.5790 ha         0 FMM       0.147000
      9 H25         14.9920    32.2630    41.3240 ha         0 FMM       0.169000
     10 H24         14.4230    35.9550    44.3660 ha         0 FMM       0.165000
     11 H01         21.7940    34.1070    31.7630 h1         0 FMM       0.127367
     12 H10         21.1840    30.1220    33.7070 h1         0 FMM       0.047700
     13 H11         19.0440    30.6340    32.1550 ha         0 FMM       0.162000
     14 H07         21.6150    32.5040    31.5870 h1         0 FMM       0.041200
     15 H06         21.7860    30.8070    32.0900 h1         0 FMM       0.041200
     16 H05         24.0250    31.1020    31.8160 h1         0 FMM       0.121700
     17 H20         17.4180    35.9730    46.1740 h1         0 FMM       0.063700
     18 H04         23.9650    32.0680    33.3100 h1         0 FMM       0.121700
     19 H09         21.2380    30.9130    35.3000 h1         0 FMM       0.047700
     20 H03         22.2960    34.4720    30.0960 h1         0 FMM       0.127367
     21 H08         22.3450    32.4700    34.2450 hn         0 FMM       0.403800
     22 H19         17.8920    36.1540    44.4500 h1         0 FMM       0.063700
     23 H14         12.8550    32.3500    34.8300 ha         0 FMM       0.156000
     24 H13         14.9180    31.6000    33.7160 ha         0 FMM       0.139000
     25 H12         16.5890    31.1480    32.7530 ha         0 FMM       0.165000
     26 H15         11.7830    34.1170    39.0430 h5         0 FMM       0.052100
     27 C           22.6040    34.4870    31.1410 c3         0 FMM      -0.371300
     28 S           24.0360    33.4650    31.3500 s6         0 FMM       1.346000
     29 O           25.0530    34.2040    32.0670 o          0 FMM      -0.674300
     30 O1          24.5430    33.0770    30.0530 o          0 FMM      -0.674300
     31 C1          23.5870    31.9800    32.2910 c3         0 FMM      -0.318600
     32 C2          22.0610    31.8360    32.3240 c3         0 FMM       0.236800
     33 N           21.5690    32.1840    33.6650 n3         0 FMM      -0.901200
     34 C3          20.9140    31.0190    34.2650 c3         0 FMM       0.170500
     35 C4          19.4160    31.2080    34.2230 cc         0 FMM       0.219000
     36 C5          18.6740    30.9770    33.1210 cd         0 FMM      -0.242300
     37 C6          17.4450    31.2370    33.4210 cd         0 FMM      -0.252300
     38 C7          17.4090    31.6450    34.7310 cc         0 FMM       0.320200
     39 O2          18.6550    31.6530    35.3630 os         0 FMM      -0.350800
     40 C8          16.1760    32.0580    35.4070 ca         0 FMM      -0.164500
     41 C9          14.9580    31.9860    34.7350 ca         0 FMM      -0.084000
     42 C10         13.8070    32.4020    35.3590 ca         0 FMM      -0.189300
     43 C11         13.8490    32.8900    36.6640 ca         0 FMM       0.449600
     44 N1          12.6830    33.3050    37.2760 nb         0 FMM      -0.733000
     45 C12         12.7080    33.7900    38.5680 ca         0 FMM       0.682900
     46 N2          13.8990    33.8630    39.2600 nb         0 FMM      -0.784000
     47 C13         15.0770    33.4520    38.6680 ca         0 FMM       0.720200
     48 N3          16.2820    33.5270    39.3660 nh         0 FMM      -0.733300
     49 C14         16.3320    33.8430    40.7350 ca         0 FMM       0.138600
     50 C15         17.1180    34.9090    41.1780 ca         0 FMM      -0.139000
     51 C16         17.1640    35.2150    42.5350 ca         0 FMM      -0.144000
     52 C17         16.4280    34.4570    43.4380 ca         0 FMM       0.092100
     53 O3          16.4460    34.7470    44.8280 os         0 FMM      -0.326900
     54 C18         17.0650    36.0020    45.1430 c3         0 FMM       0.175700
     55 C19         16.0850    37.1810    44.9840 ca         0 FMM      -0.098300
     56 C20         16.5190    38.4620    45.2460 ca         0 FMM      -0.134000
     57 C21         15.6530    39.5270    45.1020 ca         0 FMM      -0.109000
     58 C22         14.3540    39.3120    44.6930 ca         0 FMM      -0.160000
     59 C23         13.9160    38.0360    44.4290 ca         0 FMM       0.122900
     60 F           12.6790    37.8370    44.0350 f          0 FMM      -0.140900
     61 C24         14.7720    36.9660    44.5730 ca         0 FMM      -0.137000
     62 C25         15.6650    33.4150    42.9990 ca         0 FMM       0.018400
     63 Cl          14.7840    32.5140    44.1280 cl         0 FMM      -0.076400
     64 C26         15.6070    33.0980    41.6600 ca         0 FMM      -0.102000
     65 C27         15.0530    32.9590    37.3490 ca         0 FMM      -0.303600
     66 C28         16.2200    32.5450    36.7310 ca         0 FMM      -0.059000
@<TRIPOS>BOND
     1     1    51 1   
     2     2    48 1   
     3     3    50 1   
     4     4    27 1   
     5     5    56 1   
     6     6    57 1   
     7     7    66 1   
     8     8    58 1   
     9     9    64 1   
    10    10    61 1   
    11    11    27 1   
    12    12    34 1   
    13    13    36 1   
    14    14    32 1   
    15    15    32 1   
    16    16    31 1   
    17    17    54 1   
    18    18    31 1   
    19    19    34 1   
    20    20    27 1   
    21    21    33 1   
    22    22    54 1   
    23    23    42 1   
    24    24    41 1   
    25    25    37 1   
    26    26    45 1   
    27    27    28 1   
    28    28    29 2   
    29    28    30 2   
    30    28    31 1   
    31    31    32 1   
    32    32    33 1   
    33    33    34 1   
    34    34    35 1   
    35    35    36 2   
    36    35    39 1   
    37    36    37 1   
    38    37    38 2   
    39    38    39 1   
    40    38    40 1   
    41    40    41 ar  
    42    40    66 ar  
    43    41    42 ar  
    44    42    43 ar  
    45    43    44 ar  
    46    43    65 ar  
    47    44    45 ar  
    48    45    46 ar  
    49    46    47 ar  
    50    47    48 1   
    51    47    65 ar  
    52    48    49 1   
    53    49    50 ar  
    54    49    64 ar  
    55    50    51 ar  
    56    51    52 ar  
    57    52    53 1   
    58    52    62 ar  
    59    53    54 1   
    60    54    55 1   
    61    55    56 ar  
    62    55    61 ar  
    63    56    57 ar  
    64    57    58 ar  
    65    58    59 ar  
    66    59    60 1   
    67    59    61 ar  
    68    62    63 1   
    69    62    64 ar  
    70    65    66 ar  
@<TRIPOS>SUBSTRUCTURE
     1 FMM         1 TEMP              0 ****  ****    0 ROOT
