@<TRIPOS>MOLECULE
FMM
   66    70     1     0     0
SMALL
bcc


@<TRIPOS>ATOM
      1 CL3         14.7840    32.5140    44.1280 cl        91 FMM      -0.076400
      2 C1          22.6040    34.4870    31.1410 c3        91 FMM      -0.371300
      3 S2          24.0360    33.4650    31.3500 s6        91 FMM       1.346000
      4 O3          25.0530    34.2040    32.0670 o         91 FMM      -0.674300
      5 O4          24.5430    33.0770    30.0530 o         91 FMM      -0.674300
      6 C5          23.5870    31.9800    32.2910 c3        91 FMM      -0.318600
      7 C6          22.0610    31.8360    32.3240 c3        91 FMM       0.236800
      8 N7          21.5690    32.1840    33.6650 n3        91 FMM      -0.901200
      9 C8          20.9140    31.0190    34.2650 c3        91 FMM       0.170500
     10 C9          19.4160    31.2080    34.2230 cc        91 FMM       0.219000
     11 C10         18.6740    30.9770    33.1210 cd        91 FMM      -0.242300
     12 C11         17.4450    31.2370    33.4210 cd        91 FMM      -0.252300
     13 C12         17.4090    31.6450    34.7310 cc        91 FMM       0.320200
     14 O13         18.6550    31.6530    35.3630 os        91 FMM      -0.350800
     15 C14         16.1760    32.0580    35.4070 ca        91 FMM      -0.164500
     16 C15         14.9580    31.9860    34.7350 ca        91 FMM      -0.084000
     17 C16         13.8070    32.4020    35.3590 ca        91 FMM      -0.189300
     18 C17         13.8490    32.8900    36.6640 ca        91 FMM       0.449600
     19 N18         12.6830    33.3050    37.2760 nb        91 FMM      -0.733000
     20 C19         12.7080    33.7900    38.5680 ca        91 FMM       0.682900
     21 N20         13.8990    33.8630    39.2600 nb        91 FMM      -0.784000
     22 C21         15.0770    33.4520    38.6680 ca        91 FMM       0.720200
     23 N22         16.2820    33.5270    39.3660 nh        91 FMM      -0.733300
     24 C23         16.3320    33.8430    40.7350 ca        91 FMM       0.138600
     25 C24         17.1180    34.9090    41.1780 ca        91 FMM      -0.139000
     26 C25         17.1640    35.2150    42.5350 ca        91 FMM      -0.144000
     27 C26         16.4280    34.4570    43.4380 ca        91 FMM       0.092100
     28 O27         16.4460    34.7470    44.8280 os        91 FMM      -0.326900
     29 C28         17.0650    36.0020    45.1430 c3        91 FMM       0.175700
     30 C29         16.0850    37.1810    44.9840 ca        91 FMM      -0.098300
     31 C30         16.5190    38.4620    45.2460 ca        91 FMM      -0.134000
     32 C31         15.6530    39.5270    45.1020 ca        91 FMM      -0.109000
     33 C32         14.3540    39.3120    44.6930 ca        91 FMM      -0.160000
     34 C33         13.9160    38.0360    44.4290 ca        91 FMM       0.122900
     35 C35         14.7720    36.9660    44.5730 ca        91 FMM      -0.137000
     36 C36         15.6650    33.4150    42.9990 ca        91 FMM       0.018400
     37 C38         15.6070    33.0980    41.6600 ca        91 FMM      -0.102000
     38 C39         15.0530    32.9590    37.3490 ca        91 FMM      -0.303600
     39 C40         16.2200    32.5450    36.7310 ca        91 FMM      -0.059000
     40 F34         12.6790    37.8370    44.0350 f         91 FMM      -0.140900
     41 H01         21.7940    34.1070    31.7630 h1        91 FMM       0.127367
     42 H02         22.8400    35.5090    31.4370 h1        91 FMM       0.127367
     43 H03         22.2960    34.4720    30.0960 h1        91 FMM       0.127367
     44 H04         23.9650    32.0680    33.3100 h1        91 FMM       0.121700
     45 H05         24.0250    31.1020    31.8160 h1        91 FMM       0.121700
     46 H06         21.7860    30.8070    32.0900 h1        91 FMM       0.041200
     47 H07         21.6150    32.5040    31.5870 h1        91 FMM       0.041200
     48 H08         22.3450    32.4700    34.2450 hn        91 FMM       0.403800
     49 H09         21.2380    30.9130    35.3000 h1        91 FMM       0.047700
     50 H10         21.1840    30.1220    33.7070 h1        91 FMM       0.047700
     51 H11         19.0440    30.6340    32.1550 ha        91 FMM       0.162000
     52 H12         16.5890    31.1480    32.7530 ha        91 FMM       0.165000
     53 H13         14.9180    31.6000    33.7160 ha        91 FMM       0.139000
     54 H14         12.8550    32.3500    34.8300 ha        91 FMM       0.156000
     55 H15         11.7830    34.1170    39.0430 h5        91 FMM       0.052100
     56 H16         17.1450    33.3490    38.8730 hn        91 FMM       0.478800
     57 H17         17.6930    35.4990    40.4640 ha        91 FMM       0.156000
     58 H18         17.7750    36.0460    42.8880 ha        91 FMM       0.146000
     59 H19         17.8920    36.1540    44.4500 h1        91 FMM       0.063700
     60 H20         17.4180    35.9730    46.1740 h1        91 FMM       0.063700
     61 H21         17.5460    38.6340    45.5670 ha        91 FMM       0.135000
     62 H22         15.9970    40.5400    45.3120 ha        91 FMM       0.136000
     63 H23         13.6730    40.1550    44.5790 ha        91 FMM       0.147000
     64 H24         14.4230    35.9550    44.3660 ha        91 FMM       0.165000
     65 H25         14.9920    32.2630    41.3240 ha        91 FMM       0.169000
     66 H26         17.1690    32.5950    37.2650 ha        91 FMM       0.172000
@<TRIPOS>BOND
     1     1    36 1   
     2     2     3 1   
     3     2    41 1   
     4     2    42 1   
     5     2    43 1   
     6     3     4 2   
     7     3     5 2   
     8     3     6 1   
     9     6     7 1   
    10     6    44 1   
    11     6    45 1   
    12     7     8 1   
    13     7    46 1   
    14     7    47 1   
    15     8     9 1   
    16     8    48 1   
    17     9    10 1   
    18     9    49 1   
    19     9    50 1   
    20    10    11 2   
    21    10    14 1   
    22    11    12 1   
    23    11    51 1   
    24    12    13 2   
    25    12    52 1   
    26    13    14 1   
    27    13    15 1   
    28    15    16 ar  
    29    15    39 ar  
    30    16    17 ar  
    31    16    53 1   
    32    17    18 ar  
    33    17    54 1   
    34    18    19 ar  
    35    18    38 ar  
    36    19    20 ar  
    37    20    21 ar  
    38    20    55 1   
    39    21    22 ar  
    40    22    23 1   
    41    22    38 ar  
    42    23    24 1   
    43    23    56 1   
    44    24    25 ar  
    45    24    37 ar  
    46    25    26 ar  
    47    25    57 1   
    48    26    27 ar  
    49    26    58 1   
    50    27    28 1   
    51    27    36 ar  
    52    28    29 1   
    53    29    30 1   
    54    29    59 1   
    55    29    60 1   
    56    30    31 ar  
    57    30    35 ar  
    58    31    32 ar  
    59    31    61 1   
    60    32    33 ar  
    61    32    62 1   
    62    33    34 ar  
    63    33    63 1   
    64    34    35 ar  
    65    34    40 1   
    66    35    64 1   
    67    36    37 ar  
    68    37    65 1   
    69    38    39 ar  
    70    39    66 1   
@<TRIPOS>SUBSTRUCTURE
     1 FMM         1 TEMP              0 ****  ****    0 ROOT
