@<TRIPOS>MOLECULE
/web/media/ligands/6F1N_ligand.pdb
 31 33 0 0 0
SMALL
GASTEIGER

@<TRIPOS>ATOM
      1 C          67.9910   38.5030   27.0670 C.3     1  UNL1        0.2061
      2 N          64.9600   37.5300   19.3790 N.am    1  UNL1       -0.0832
      3 C          63.3120   33.8250   25.0400 C.ar    1  UNL1        0.1798
      4 C          64.6390   33.9000   25.5520 C.ar    1  UNL1        0.1032
      5 C          65.0040   33.2640   26.8000 C.1     1  UNL1        0.1033
      6 C          63.8820   35.0790   23.1600 C.ar    1  UNL1        0.1137
      7 C          65.2100   35.2700   23.5900 C.ar    1  UNL1        0.0420
      8 C          65.9680   36.0870   22.6340 C.ar    1  UNL1        0.1015
      9 C          69.1850   33.9460   25.8870 C.ar    1  UNL1        0.0400
     10 C          67.9180   33.7440   25.3510 C.ar    1  UNL1        0.0033
     11 C          66.9820   34.7920   25.3630 C.ar    1  UNL1        0.0041
     12 C          67.3370   36.0160   25.9460 C.ar    1  UNL1        0.0401
     13 C          68.3900   39.5670   28.0990 C.3     1  UNL1        0.0591
     14 O          68.9470   37.4240   27.0300 O.3     1  UNL1       -0.4724
     15 S          63.6060   35.8960   21.6340 S.2     1  UNL1       -0.0619
     16 C          65.2540   36.4880   21.5350 C.ar    1  UNL1        0.1042
     17 C          65.7530   37.2610   20.4340 C.2     1  UNL1        0.2916
     18 N          62.3120   33.1600   25.7100 N.pl3   1  UNL1       -0.1065
     19 N          62.9990   34.3720   23.8860 N.ar    1  UNL1       -0.2202
     20 N          65.3310   32.7680   27.7730 N.1     1  UNL1       -0.1907
     21 N          67.3100   36.4370   22.7970 N.pl3   1  UNL1       -0.1273
     22 C          68.6130   36.2220   26.4710 C.ar    1  UNL1        0.1722
     23 C          69.5570   35.1800   26.4350 C.ar    1  UNL1        0.1724
     24 C          65.6040   34.6410   24.8260 C.ar    1  UNL1        0.0158
     25 O          70.8120   35.3990   26.9590 O.3     1  UNL1       -0.4684
     26 C          71.8470   34.4060   26.9160 C.3     1  UNL1        0.2526
     27 O          66.9140   37.6480   20.3940 O.2     1  UNL1       -0.2661
     28 C          69.5570   40.4340   27.6000 C.3     1  UNL1        0.1179
     29 C          69.1450   41.3760   26.4870 C.2     1  UNL1        0.3650
     30 O          68.5610   42.4080   26.7460 O.co2   1  UNL1       -0.2457
     31 O          69.4330   41.0750   25.2050 O.co2   1  UNL1       -0.2457
@<TRIPOS>BOND
     1     1    13    1
     2     2    17   am
     3     3     4   ar
     4     3    18    1
     5     4     5    1
     6     5    20    3
     7     6     7   ar
     8     6    19   ar
     9     7    24   ar
    10     8    21    1
    11     8     7   ar
    12     9    23   ar
    13    10    11   ar
    14    10     9   ar
    15    11    12   ar
    16    12    22   ar
    17    14     1    1
    18    15     6   ar
    19    16    15   ar
    20    16     8   ar
    21    17    16    1
    22    19     3   ar
    23    22    14    1
    24    23    22   ar
    25    23    25    1
    26    24    11    1
    27    24     4   ar
    28    26    25    1
    29    27    17    2
    30    28    13    1
    31    29    30   ar
    32    29    28    1
    33    31    29   ar
