@<TRIPOS>MOLECULE
2EQ
   56    59     1     0     0
SMALL
bcc


@<TRIPOS>ATOM
      1 H18         34.4900     6.2960    29.6770 hc         0 2EQ       0.043033
      2 H24         28.5630    11.2700    25.6880 ho         0 2EQ       0.445000
      3 H23         29.0510    12.1460    22.8740 ha         0 2EQ       0.162000
      4 H21         33.2770    10.6910    24.9470 ha         0 2EQ       0.164000
      5 H12         34.5000     9.0160    26.4790 ha         0 2EQ       0.141500
      6 H08         35.6490     5.0950    20.5920 h1         0 2EQ       0.043200
      7 H02         35.2060     4.4180    24.4730 h1         0 2EQ       0.043200
      8 H22         30.4810    13.6020    21.7010 ho         0 2EQ       0.430000
      9 H09         35.1470     7.0140    21.5450 h1         0 2EQ       0.042700
     10 H01         36.5850     5.5280    24.5640 h1         0 2EQ       0.043200
     11 H07         34.4510     4.1460    21.5200 h1         0 2EQ       0.043200
     12 H06         36.7950     3.1130    20.5090 h1         0 2EQ       0.054200
     13 H17         32.0440     6.0250    31.4450 h1         0 2EQ       0.063200
     14 H05         35.9500     2.3940    21.8250 h1         0 2EQ       0.054200
     15 H11         36.0780     8.1810    24.7790 ha         0 2EQ       0.144500
     16 H03         36.5670     2.6580    23.8800 h1         0 2EQ       0.054200
     17 H10         36.4940     7.2820    22.6850 h1         0 2EQ       0.042700
     18 H13         32.8460     6.5130    22.5420 ha         0 2EQ       0.144500
     19 H16         32.3210     4.9980    30.0080 h1         0 2EQ       0.063200
     20 H15         31.5020     7.7850    30.0310 hn         0 2EQ       0.319500
     21 H14         31.2620     7.3410    24.2470 ha         0 2EQ       0.141500
     22 H04         37.8990     3.6790    24.3450 h1         0 2EQ       0.054200
     23 H20         34.4360     5.1940    31.0730 hc         0 2EQ       0.043033
     24 H19         34.2360     6.9460    31.3140 hc         0 2EQ       0.043033
     25 C           36.0920     4.7760    23.9480 c3         0 2EQ       0.129300
     26 C1          37.0300     3.6260    23.6890 c3         0 2EQ       0.126900
     27 O           37.4070     3.7880    22.3460 os         0 2EQ      -0.416600
     28 C2          36.4110     3.3290    21.5060 c3         0 2EQ       0.126900
     29 C3          35.4780     4.5100    21.4960 c3         0 2EQ       0.129300
     30 N           35.7050     5.3550    22.6660 n3         0 2EQ      -0.724600
     31 C4          35.5330     6.7900    22.5390 c3         0 2EQ       0.212100
     32 C5          34.5530     7.2940    23.5700 ca         0 2EQ      -0.072300
     33 C6          35.0100     7.9950    24.6650 ca         0 2EQ      -0.121500
     34 C7          34.1330     8.4620    25.6150 ca         0 2EQ      -0.104000
     35 C8          33.2110     7.0600    23.4110 ca         0 2EQ      -0.121500
     36 C9          32.3300     7.5250    24.3630 ca         0 2EQ      -0.104000
     37 C10         32.7890     8.2220    25.4630 ca         0 2EQ      -0.035000
     38 C11         31.8790     8.7000    26.3770 cc         0 2EQ      -0.218600
     39 C12         31.5530     8.2050    27.6140 cc         0 2EQ       0.286800
     40 C13         32.1590     7.0110    28.3040 c          0 2EQ       0.598600
     41 O1          32.8350     6.1970    27.7070 o          0 2EQ      -0.580100
     42 N1          32.0040     7.0180    29.6070 n          0 2EQ      -0.558900
     43 C14         32.5270     5.9630    30.4700 c3         0 2EQ       0.086000
     44 C15         34.0280     6.1100    30.6460 c3         0 2EQ      -0.118100
     45 N2          30.6360     8.9740    28.1520 nd         0 2EQ      -0.332300
     46 O2          30.3430     9.9890    27.2470 os         0 2EQ      -0.136100
     47 C16         31.1120     9.8140    26.1610 cd         0 2EQ       0.336200
     48 C17         31.1350    10.6160    25.0320 ca         0 2EQ      -0.259500
     49 C18         32.3420    11.0120    24.4870 ca         0 2EQ      -0.028000
     50 C19         32.3680    11.8170    23.3560 ca         0 2EQ      -0.054600
     51 Cl          33.8320    12.3300    22.6330 cl         0 2EQ      -0.061400
     52 C20         31.1910    12.2230    22.7830 ca         0 2EQ       0.192100
     53 O3          31.2280    12.9990    21.6910 oh         0 2EQ      -0.474100
     54 C21         29.9880    11.8280    23.3320 ca         0 2EQ      -0.260000
     55 C22         29.9670    11.0340    24.4550 ca         0 2EQ       0.218100
     56 O4          28.8030    10.6630    24.9840 oh         0 2EQ      -0.486100
@<TRIPOS>BOND
     1     1    44 1   
     2     2    56 1   
     3     3    54 1   
     4     4    49 1   
     5     5    34 1   
     6     6    29 1   
     7     7    25 1   
     8     8    53 1   
     9     9    31 1   
    10    10    25 1   
    11    11    29 1   
    12    12    28 1   
    13    13    43 1   
    14    14    28 1   
    15    15    33 1   
    16    16    26 1   
    17    17    31 1   
    18    18    35 1   
    19    19    43 1   
    20    20    42 1   
    21    21    36 1   
    22    22    26 1   
    23    23    44 1   
    24    24    44 1   
    25    25    26 1   
    26    25    30 1   
    27    26    27 1   
    28    27    28 1   
    29    28    29 1   
    30    29    30 1   
    31    30    31 1   
    32    31    32 1   
    33    32    33 ar  
    34    32    35 ar  
    35    33    34 ar  
    36    34    37 ar  
    37    35    36 ar  
    38    36    37 ar  
    39    37    38 1   
    40    38    39 1   
    41    38    47 2   
    42    39    40 1   
    43    39    45 2   
    44    40    41 2   
    45    40    42 1   
    46    42    43 1   
    47    43    44 1   
    48    45    46 1   
    49    46    47 1   
    50    47    48 1   
    51    48    49 ar  
    52    48    55 ar  
    53    49    50 ar  
    54    50    51 1   
    55    50    52 ar  
    56    52    53 1   
    57    52    54 ar  
    58    54    55 ar  
    59    55    56 1   
@<TRIPOS>SUBSTRUCTURE
     1 2EQ         1 TEMP              0 ****  ****    0 ROOT
