REMARK  Name = /web/media/ligands/2X23_ligand.pdb
REMARK  7 active torsions:
REMARK  status: ('A' for Active; 'I' for Inactive)
REMARK    1  A    between atoms: C_4  and  C_5
REMARK    2  A    between atoms: C_5  and  C_6
REMARK    3  A    between atoms: C_6  and  C_7
REMARK    4  A    between atoms: C_7  and  C_8
REMARK    5  A    between atoms: C_8  and  C_9
REMARK    6  A    between atoms: C_13  and  O_14
REMARK    7  A    between atoms: O_14  and  C_15
REMARK                            x       y       z     vdW  Elec       q    Type
REMARK                         _______ _______ _______ _____ _____    ______ ____
ROOT
ATOM      1  O   UNL     1     -21.455  -4.322 -27.624  0.00  0.00    -0.283 OA
ATOM      2  C   UNL     1     -21.788  -4.423 -28.958  0.00  0.00    +0.230 A 
ATOM      3  C   UNL     1     -21.749  -3.187 -29.776  0.00  0.00    +0.184 A 
ATOM      4  C   UNL     1     -22.034  -3.213 -31.141  0.00  0.00    +0.040 A 
ATOM      5  C   UNL     1     -22.430  -4.432 -31.682  0.00  0.00    -0.001 A 
ATOM      6  C   UNL     1     -22.490  -5.608 -30.930  0.00  0.00    -0.019 A 
ATOM      7  C   UNL     1     -22.192  -5.614 -29.562  0.00  0.00    +0.041 A 
ENDROOT
BRANCH   6   8
ATOM      8  C   UNL     1     -22.880  -6.915 -31.604  0.00  0.00    +0.026 C 
BRANCH   8   9
ATOM      9  C   UNL     1     -21.518  -7.419 -32.103  0.00  0.00    +0.005 C 
BRANCH   9  10
ATOM     10  C   UNL     1     -21.565  -8.780 -32.755  0.00  0.00    +0.000 C 
BRANCH  10  11
ATOM     11  C   UNL     1     -20.174  -9.397 -32.798  0.00  0.00    +0.000 C 
BRANCH  11  12
ATOM     12  C   UNL     1     -19.228  -8.692 -33.743  0.00  0.00    +0.000 C 
ATOM     13  C   UNL     1     -19.374  -9.173 -35.190  0.00  0.00    +0.000 C 
ENDBRANCH  11  12
ENDBRANCH  10  11
ENDBRANCH   9  10
ENDBRANCH   8   9
ENDBRANCH   6   8
BRANCH   3  14
ATOM     14  O   UNL     1     -21.358  -2.056 -29.174  0.00  0.00    -0.451 OA
BRANCH  14  15
ATOM     15  C   UNL     1     -19.999  -1.727 -29.125  0.00  0.00    +0.141 A 
ATOM     16  C   UNL     1     -18.998  -2.567 -29.643  0.00  0.00    +0.037 A 
ATOM     17  C   UNL     1     -17.665  -2.166 -29.578  0.00  0.00    +0.003 A 
ATOM     18  C   UNL     1     -17.295  -0.954 -28.979  0.00  0.00    -0.000 A 
ATOM     19  C   UNL     1     -18.254  -0.080 -28.452  0.00  0.00    -0.001 A 
ATOM     20  C   UNL     1     -19.610  -0.429 -28.500  0.00  0.00    +0.013 A 
ATOM     21  C   UNL     1     -20.673   0.486 -27.951  0.00  0.00    +0.034 C 
ENDBRANCH  14  15
ENDBRANCH   3  14
TORSDOF 7
