/web/media/ligands/2X23_ligand.pdb
 OpenBabel04242009293D

 21 22  0  0  0  0  0  0  0  0999 V2000
  -21.4550   -4.3220  -27.6240 O   0  0  0  0  0  0  0  0  0  0  0  0
  -21.7880   -4.4230  -28.9580 C   0  0  0  0  0  0  0  0  0  0  0  0
  -22.1920   -5.6140  -29.5620 C   0  0  0  0  0  0  0  0  0  0  0  0
  -22.4900   -5.6080  -30.9300 C   0  0  0  0  0  0  0  0  0  0  0  0
  -22.8800   -6.9150  -31.6040 C   0  0  0  0  0  0  0  0  0  0  0  0
  -21.5180   -7.4190  -32.1030 C   0  0  0  0  0  0  0  0  0  0  0  0
  -21.5650   -8.7800  -32.7550 C   0  0  0  0  0  0  0  0  0  0  0  0
  -20.1740   -9.3970  -32.7980 C   0  0  0  0  0  0  0  0  0  0  0  0
  -19.2280   -8.6920  -33.7430 C   0  0  0  0  0  0  0  0  0  0  0  0
  -19.3740   -9.1730  -35.1900 C   0  0  0  0  0  0  0  0  0  0  0  0
  -22.4300   -4.4320  -31.6820 C   0  0  0  0  0  0  0  0  0  0  0  0
  -22.0340   -3.2130  -31.1410 C   0  0  0  0  0  0  0  0  0  0  0  0
  -21.7490   -3.1870  -29.7760 C   0  0  0  0  0  0  0  0  0  0  0  0
  -21.3580   -2.0560  -29.1740 O   0  0  0  0  0  0  0  0  0  0  0  0
  -19.9990   -1.7270  -29.1250 C   0  0  0  0  0  0  0  0  0  0  0  0
  -18.9980   -2.5670  -29.6430 C   0  0  0  0  0  0  0  0  0  0  0  0
  -17.6650   -2.1660  -29.5780 C   0  0  0  0  0  0  0  0  0  0  0  0
  -17.2950   -0.9540  -28.9790 C   0  0  0  0  0  0  0  0  0  0  0  0
  -18.2540   -0.0800  -28.4520 C   0  0  0  0  0  0  0  0  0  0  0  0
  -19.6100   -0.4290  -28.5000 C   0  0  0  0  0  0  0  0  0  0  0  0
  -20.6730    0.4860  -27.9510 C   0  0  0  0  0  0  0  0  0  0  0  0
  2  1  1  0  0  0  0
  3  2  1  0  0  0  0
  4  3  2  0  0  0  0
  5  4  1  0  0  0  0
  6  5  1  0  0  0  0
  7  6  1  0  0  0  0
  8  7  1  0  0  0  0
  9  8  1  0  0  0  0
 10  9  1  0  0  0  0
 11 12  2  0  0  0  0
 11  4  1  0  0  0  0
 12 13  1  0  0  0  0
 13 14  1  0  0  0  0
 13  2  2  0  0  0  0
 14 15  1  0  0  0  0
 15 20  2  0  0  0  0
 16 17  2  0  0  0  0
 16 15  1  0  0  0  0
 17 18  1  0  0  0  0
 18 19  2  0  0  0  0
 20 19  1  0  0  0  0
 20 21  1  0  0  0  0
M  END
>  <REMARK>
 800 SITE_DESCRIPTION: BINDING SITE FOR RESIDUE TCU A1271                 
 800 SITE_DESCRIPTION: BINDING SITE FOR RESIDUE TCU G1271                 
 800 SITE_DESCRIPTION: BINDING SITE FOR RESIDUE TCU E1271                 
 800 SITE_DESCRIPTION: BINDING SITE FOR RESIDUE TCU B1271                 

>  <HET>
 TCU  A1271      21                                                       
 TCU  G1271      21                                                       
 TCU  E1271      21                                                       
 TCU  B1271      21                                                       

>  <HETNAM>
     TCU 5-HEXYL-2-(2-METHYLPHENOXY)PHENOL                                

>  <HETSYN>
     TCU 2-(O-TOLYLOXY)-5-HEXYLPHENOL                                     

>  <FORMUL>
   5  TCU    4(C19 H24 O2)                                                

>  <SITE>
   6 AC1 32 ILE A 194  THR A 196  ALA A 198  TCU A1271                    
   7 AC2 32 TCU B1271  HOH B2023  HOH B2071  HOH B2159                    
   7 AC3 34 MET E 199  TCU E1271  HOH E2031  HOH E2053                    
   7 AC4 33 TCU G1271  HOH G2005  HOH G2037  HOH G2149                    

$$$$
